/*--------------------------------*- C++ -*----------------------------------*\
| =========                 |                                                 |
| \\      /  F ield         | OpenFOAM: The Open Source CFD Toolbox           |
|  \\    /   O peration     | Version:  2206                                  |
|   \\  /    A nd           | Website:  www.openfoam.com                      |
|    \\/     M anipulation  |                                                 |
\*---------------------------------------------------------------------------*/
FoamFile
{
    version     2.0;
    format      ascii;
    arch        "LSB;label=32;scalar=64";
    class       triSurfacePointScalarField;
    location    "constant/triSurface";
    object      cylinder.curvature;
}
// * * * * * * * * * * * * * * * * * * * * * * * * * * * * * * * * * * * * * //

dimensions      [0 1 0 0 0 0 0];

value           nonuniform List<scalar> 
286
(
4.415987462743498
3.892598424440678
7.284447387543459
8.824189023970561
9.160050307373993
9.158905158428322
11.66608447883448
8.563311251907939
8.20829767553543
13.04452076688458
13.05394048744279
9.654855266662528
8.372474586593139
8.074516558700676
11.01631988738262
4.874561141436301
10.35923970370158
9.783980041482511
9.670740977323238
9.941517671296356
9.381839278386851
7.44359229841768
9.819671920524197
9.67836397685083
5.184446747615856
4.82947468736578
4.915960254779353
11.31707358947494
10.65704434894457
4.495223471571387
13.10035323121161
13.10935842486545
8.779930088572888
5.042539765626586
5.042108854837246
5.180771197428394
5.270499250891445
5.102075448248728
5.15931613029719
9.537941297265807
9.315688594837573
13.13231751606888
8.137315844383862
7.294049824932168
6.774184084768426
6.773777584479605
5.756251406715802
5.495991758016259
8.63735535217139
9.741128464398589
6.328230302283984
5.714259623960958
5.293136463609098
5.143923003681504
5.627122401278334
13.12816193961029
12.99623069961002
12.16696015348003
11.59153116939081
13.12650540850725
13.06408467454384
13.09467102108034
4.909083857128131
4.638194498300003
4.674061643740588
4.582929536713936
4.284381231060076
4.340650444478928
9.351079869103177
8.404029393472785
9.164170036259945
7.493691418943695
8.904869945025251
11.30981167673938
12.1297636646314
13.01449536768766
2.26189178102546
21.89487635095683
9.661988041499175
9.416058251880154
7.044699234870498
11.05688735534602
11.31464320175076
6.038377705897822
11.0443009298956
2.918829662044178
6.590386282458562
7.341230083113678
6.990680774046378
6.882809153542821
6.729058988944951
6.375900662377155
1.241915370390225
6.135197332839233
6.007363971149683
9.943660190585552
10.02931958934435
9.788489372908401
8.935958909220583
8.084265253438108
7.401601591074293
9.82266512756561
2.115245905595377
9.319026732641948
9.739671326733117
9.605919258649344
9.416359577660781
9.10769127267276
9.46406793445764
9.894597062233945
0.5871857021628838
3.369687856416039
6.811010210436766
6.190526267120565
5.911309465108823
5.584091209742104
5.689714943250022
5.612570893829145
6.203001793469763
3.170920852121179
6.081916613774741
6.520000956256043
6.726456403427725
6.826998044101936
5.640910989621702
5.276027981559592
7.400325254300379
5.025938173335588
7.156328081093704
7.870177261549161
3.181861019294011
8.868066113226911
5.3273489258
5.727689173460807
9.809074491049918
10.81952237172164
11.20532076634743
11.16718452236767
11.65799525372681
11.59384066637393
11.0824987191934
10.87410749934883
4.934958826427824
4.63266139672986
4.461614426219271
4.438514906126175
3.906556032050408
6.639737666907287
6.406946838573801
7.010574862012787
12.46083479640616
3.336449702353637
0.625817540265486
9.889896605937441
9.876234437091464
10.60867050489831
9.746328187510612
6.968284669403736
9.927519902441329
9.634353196977521
9.410298788898109
10.01301008593281
9.078550231642074
8.701277975410411
9.572830400217757
8.379842891963367
7.903389926383648
8.970418256238007
7.628837052494403
7.116447891284037
8.23998451352486
6.95756034119743
6.458112483583978
7.508718816232756
6.450524113997805
5.979213060147957
6.895722748327486
6.123234345111744
5.680426425423203
6.457546896634375
5.977709175771059
5.553337922618629
6.191294413988917
5.994500059096577
5.584185701432101
6.091341415170271
6.152748152268259
5.74789462269055
6.132551297513817
6.406958502638307
6.018418134806803
6.294230109334489
6.721317025492908
6.383604867337512
6.544926681517643
7.086126200954796
6.826556719223506
6.856718572576264
7.500887170614383
7.322414567903344
7.226706138959457
8.002945039898659
7.876967424249288
7.67055713827653
8.620745278667414
8.516638590152148
8.22187303827303
9.323662229370576
9.237945706018841
8.890529782458795
9.959261108914227
9.903327731178759
9.596303499614669
10.35241366119851
10.3315361001579
10.16449445063152
10.43363961392756
10.43539347367016
10.45113902440938
10.2371882357261
10.44434066783897
6.468159591158415
6.378090562223474
7.835875972311983
7.038659595198927
7.075614081273648
8.425140526888605
7.657389776810612
7.607869296057711
8.600361484149806
8.042319539266829
7.925542932032959
8.259140804974789
8.257894305260173
8.237061886234351
7.479117493414214
8.542761772410715
8.708517657897383
7.619245705083179
8.938471381177772
9.153631778009498
8.331665346236928
9.192490350278733
9.318650707998886
8.581286735174071
9.094453246835567
9.080439099628098
8.320158740759483
8.611582479923591
8.491253176529876
7.679298682661899
7.908092126793871
7.774410604739198
6.932716768022132
7.255000007101332
7.199940592053491
6.407431092233777
6.83806127875425
6.8758630770238
6.319074630944773
6.642071351847607
6.717761223348526
6.571607076035721
6.547805408292796
6.598582962810969
6.893398613708698
6.463083102260979
6.438980289017722
7.066572839264198
6.327204779772086
6.210645574424949
7.010233790060255
6.133725731686631
5.928351592470878
6.747327260335533
5.907940335497842
5.652515045338619
6.435848804566494
5.727000386602652
5.474501450284526
6.333058995942228
5.706148128217878
5.530989858897185
6.658329237741984
5.957657839468551
6.968259594422881
)
;


// ************************************************************************* //
