/*--------------------------------*- C++ -*----------------------------------*\
| =========                 |                                                 |
| \\      /  F ield         | OpenFOAM: The Open Source CFD Toolbox           |
|  \\    /   O peration     | Version:  2206                                  |
|   \\  /    A nd           | Website:  www.openfoam.com                      |
|    \\/     M anipulation  |                                                 |
\*---------------------------------------------------------------------------*/
FoamFile
{
    version     2.0;
    format      ascii;
    arch        "LSB;label=32;scalar=64";
    class       extendedFeatureEdgeMesh;
    location    "constant/extendedFeatureEdgeMesh";
    object      cylinder.extendedFeatureEdgeMesh;
}
// * * * * * * * * * * * * * * * * * * * * * * * * * * * * * * * * * * * * * //

// points

284
(
(-1 2 0)
(-1 1 0)
(1 0 0)
(0 0 0)
(2 2 0)
(2 1 0)
(-0 3 0)
(1 3 0)
(2 1 0.1000000014901161)
(-1 2 0.1000000014901161)
(-1 1 0.1000000014901161)
(2 2 0.1000000014901161)
(1 0 0.1000000014901161)
(0 0 0.1000000014901161)
(1 3 0.1000000014901161)
(-0 3 0.1000000014901161)
(-0 2 0)
(-0 1 0)
(1 2 0)
(1 1 0)
(0.6000000238418579 1.5 0)
(1 2 0.1000000014901161)
(-0 1 0.1000000014901161)
(1 1 0.1000000014901161)
(-0 2 0.1000000014901161)
(0.6000000238418579 1.5 0.1000000014901161)
(0.4004670083522797 1.509650945663452 0)
(0.4000000059604645 1.5 0)
(0.5072429776191711 1.599737048149109 0)
(0.4975839853286743 1.599971055984497 0)
(0.4879460036754608 1.599271059036255 0)
(0.4784219861030579 1.597643971443176 0)
(0.5262709856033325 1.403512001037598 0)
(0.5354599952697754 1.406497955322266 0)
(0.4220330119132996 1.437381982803345 0)
(0.4284400045871735 1.430148959159851 0)
(0.5607159733772278 1.579457998275757 0)
(0.5527639985084534 1.584946990013123 0)
(0.5443189740180969 1.589643001556396 0)
(0.5354599952697754 1.593502044677734 0)
(0.5809019804000854 1.441220998764038 0)
(0.5861970186233521 1.449303984642029 0)
(0.5906869769096375 1.457859992980957 0)
(0.5943310260772705 1.466809034347534 0)
(0.5906869769096375 1.542140007019043 0)
(0.5861970186233521 1.550696015357971 0)
(0.5809019804000854 1.558779001235962 0)
(0.5681020021438599 1.426772952079773 0)
(0.5748509764671326 1.433688044548035 0)
(0.4690980017185211 1.40489399433136 0)
(0.4784219861030579 1.402356028556824 0)
(0.4004670083522797 1.490349054336548 0)
(0.4018630087375641 1.480787038803101 0)
(0.4041750133037567 1.471405029296875 0)
(0.407382994890213 1.46229100227356 0)
(0.4114539921283722 1.453528046607971 0)
(0.4163529872894287 1.445199012756348 0)
(0.5262709856033325 1.596487998962402 0)
(0.5168359875679016 1.598572969436646 0)
(0.4600639939308167 1.408321022987366 0)
(0.4690980017185211 1.59510600566864 0)
(0.4600639939308167 1.591678977012634 0)
(0.4514020085334778 1.58739697933197 0)
(0.598950982093811 1.514449000358582 0)
(0.5970939993858337 1.523931980133057 0)
(0.5943310260772705 1.533190965652466 0)
(0.4431940019130707 1.582298040390015 0)
(0.4355159997940063 1.5764319896698 0)
(0.4284400045871735 1.569851040840149 0)
(0.5748509764671326 1.566311955451965 0)
(0.5681020021438599 1.573227047920227 0)
(0.5168359875679016 1.401427030563354 0)
(0.5443189740180969 1.410356998443604 0)
(0.5527639985084534 1.415053009986877 0)
(0.5607159733772278 1.420542001724243 0)
(0.4879460036754608 1.400728940963745 0)
(0.4975839853286743 1.400028944015503 0)
(0.5072429776191711 1.400262951850891 0)
(0.4220330119132996 1.562618017196655 0)
(0.4163529872894287 1.554800987243652 0)
(0.4114539921283722 1.546471953392029 0)
(0.407382994890213 1.53770899772644 0)
(0.4041750133037567 1.528594970703125 0)
(0.4018630087375641 1.519212961196899 0)
(0.5970939993858337 1.476068019866943 0)
(0.598950982093811 1.485550999641418 0)
(0.5998830199241638 1.495169043540955 0)
(0.4355159997940063 1.4235680103302 0)
(0.4431940019130707 1.417701959609985 0)
(0.4514020085334778 1.41260302066803 0)
(0.5998830199241638 1.504830956459045 0)
(0.4690980017185211 1.59510600566864 0.1000000014901161)
(0.4784219861030579 1.597643971443176 0.1000000014901161)
(0.4355159997940063 1.4235680103302 0.1000000014901161)
(0.4284400045871735 1.430148959159851 0.1000000014901161)
(0.4220330119132996 1.437381982803345 0.1000000014901161)
(0.5998830199241638 1.495169043540955 0.1000000014901161)
(0.598950982093811 1.485550999641418 0.1000000014901161)
(0.5970939993858337 1.476068019866943 0.1000000014901161)
(0.5943310260772705 1.466809034347534 0.1000000014901161)
(0.5906869769096375 1.457859992980957 0.1000000014901161)
(0.5861970186233521 1.449303984642029 0.1000000014901161)
(0.5809019804000854 1.441220998764038 0.1000000014901161)
(0.5748509764671326 1.433688044548035 0.1000000014901161)
(0.4431940019130707 1.582298040390015 0.1000000014901161)
(0.4514020085334778 1.58739697933197 0.1000000014901161)
(0.4600639939308167 1.591678977012634 0.1000000014901161)
(0.4879460036754608 1.599271059036255 0.1000000014901161)
(0.4975839853286743 1.599971055984497 0.1000000014901161)
(0.5072429776191711 1.599737048149109 0.1000000014901161)
(0.4163529872894287 1.445199012756348 0.1000000014901161)
(0.4114539921283722 1.453528046607971 0.1000000014901161)
(0.407382994890213 1.46229100227356 0.1000000014901161)
(0.4041750133037567 1.471405029296875 0.1000000014901161)
(0.4018630087375641 1.480787038803101 0.1000000014901161)
(0.4004670083522797 1.490349054336548 0.1000000014901161)
(0.4000000059604645 1.5 0.1000000014901161)
(0.4004670083522797 1.509650945663452 0.1000000014901161)
(0.5168359875679016 1.598572969436646 0.1000000014901161)
(0.5262709856033325 1.596487998962402 0.1000000014901161)
(0.5354599952697754 1.593502044677734 0.1000000014901161)
(0.5443189740180969 1.589643001556396 0.1000000014901161)
(0.5527639985084534 1.584946990013123 0.1000000014901161)
(0.5607159733772278 1.579457998275757 0.1000000014901161)
(0.5809019804000854 1.558779001235962 0.1000000014901161)
(0.5861970186233521 1.550696015357971 0.1000000014901161)
(0.5906869769096375 1.542140007019043 0.1000000014901161)
(0.5943310260772705 1.533190965652466 0.1000000014901161)
(0.5970939993858337 1.523931980133057 0.1000000014901161)
(0.5681020021438599 1.426772952079773 0.1000000014901161)
(0.5607159733772278 1.420542001724243 0.1000000014901161)
(0.5527639985084534 1.415053009986877 0.1000000014901161)
(0.4879460036754608 1.400728940963745 0.1000000014901161)
(0.4784219861030579 1.402356028556824 0.1000000014901161)
(0.4690980017185211 1.40489399433136 0.1000000014901161)
(0.5681020021438599 1.573227047920227 0.1000000014901161)
(0.5748509764671326 1.566311955451965 0.1000000014901161)
(0.4018630087375641 1.519212961196899 0.1000000014901161)
(0.4041750133037567 1.528594970703125 0.1000000014901161)
(0.407382994890213 1.53770899772644 0.1000000014901161)
(0.4114539921283722 1.546471953392029 0.1000000014901161)
(0.4163529872894287 1.554800987243652 0.1000000014901161)
(0.4220330119132996 1.562618017196655 0.1000000014901161)
(0.4284400045871735 1.569851040840149 0.1000000014901161)
(0.4355159997940063 1.5764319896698 0.1000000014901161)
(0.5443189740180969 1.410356998443604 0.1000000014901161)
(0.5354599952697754 1.406497955322266 0.1000000014901161)
(0.5262709856033325 1.403512001037598 0.1000000014901161)
(0.5168359875679016 1.401427030563354 0.1000000014901161)
(0.5072429776191711 1.400262951850891 0.1000000014901161)
(0.4975839853286743 1.400028944015503 0.1000000014901161)
(0.598950982093811 1.514449000358582 0.1000000014901161)
(0.5998830199241638 1.504830956459045 0.1000000014901161)
(0.4600639939308167 1.408321022987366 0.1000000014901161)
(0.4514020085334778 1.41260302066803 0.1000000014901161)
(0.4431940019130707 1.417701959609985 0.1000000014901161)
(0.5995330214500427 1.509650945663452 0.1000000014901161)
(0.5995330214500427 1.490349054336548 0.1000000014901161)
(0.5926169753074646 1.46229100227356 0.1000000014901161)
(0.5958250164985657 1.471405029296875 0.1000000014901161)
(0.5981370210647583 1.480787038803101 0.1000000014901161)
(0.5779669880867004 1.437381982803345 0.1000000014901161)
(0.5836470127105713 1.445199012756348 0.1000000014901161)
(0.5885459780693054 1.453528046607971 0.1000000014901161)
(0.5568060278892517 1.417701959609985 0.1000000014901161)
(0.5644840002059937 1.4235680103302 0.1000000014901161)
(0.5715600252151489 1.430148959159851 0.1000000014901161)
(0.5309020280838013 1.40489399433136 0.1000000014901161)
(0.5399360060691833 1.408321022987366 0.1000000014901161)
(0.5485979914665222 1.41260302066803 0.1000000014901161)
(0.5024160146713257 1.400028944015503 0.1000000014901161)
(0.5120540261268616 1.400728940963745 0.1000000014901161)
(0.5215780138969421 1.402356028556824 0.1000000014901161)
(0.4737290143966675 1.403512001037598 0.1000000014901161)
(0.4831640124320984 1.401427030563354 0.1000000014901161)
(0.4927569925785065 1.400262951850891 0.1000000014901161)
(0.4472360014915466 1.415053009986877 0.1000000014901161)
(0.4556809961795807 1.410356998443604 0.1000000014901161)
(0.4645389914512634 1.406497955322266 0.1000000014901161)
(0.425148993730545 1.433688044548035 0.1000000014901161)
(0.4318979978561401 1.426772952079773 0.1000000014901161)
(0.4392839968204498 1.420542001724243 0.1000000014901161)
(0.4093129932880402 1.457859992980957 0.1000000014901161)
(0.4138030111789703 1.449303984642029 0.1000000014901161)
(0.4190979897975922 1.441220998764038 0.1000000014901161)
(0.4010489881038666 1.485550999641418 0.1000000014901161)
(0.4029060006141663 1.476068019866943 0.1000000014901161)
(0.4056690037250519 1.466809034347534 0.1000000014901161)
(0.4010489881038666 1.514449000358582 0.1000000014901161)
(0.4001170098781586 1.504830956459045 0.1000000014901161)
(0.4001170098781586 1.495169043540955 0.1000000014901161)
(0.4093129932880402 1.542140007019043 0.1000000014901161)
(0.4056690037250519 1.533190965652466 0.1000000014901161)
(0.4029060006141663 1.523931980133057 0.1000000014901161)
(0.425148993730545 1.566311955451965 0.1000000014901161)
(0.4190979897975922 1.558779001235962 0.1000000014901161)
(0.4138030111789703 1.550696015357971 0.1000000014901161)
(0.4472360014915466 1.584946990013123 0.1000000014901161)
(0.4392839968204498 1.579457998275757 0.1000000014901161)
(0.4318979978561401 1.573227047920227 0.1000000014901161)
(0.4737290143966675 1.596487998962402 0.1000000014901161)
(0.4645389914512634 1.593502044677734 0.1000000014901161)
(0.4556809961795807 1.589643001556396 0.1000000014901161)
(0.5024160146713257 1.599971055984497 0.1000000014901161)
(0.4927569925785065 1.599737048149109 0.1000000014901161)
(0.4831640124320984 1.598572969436646 0.1000000014901161)
(0.5309020280838013 1.59510600566864 0.1000000014901161)
(0.5215780138969421 1.597643971443176 0.1000000014901161)
(0.5120540261268616 1.599271059036255 0.1000000014901161)
(0.5568060278892517 1.582298040390015 0.1000000014901161)
(0.5485979914665222 1.58739697933197 0.1000000014901161)
(0.5399360060691833 1.591678977012634 0.1000000014901161)
(0.5779669880867004 1.562618017196655 0.1000000014901161)
(0.5715600252151489 1.569851040840149 0.1000000014901161)
(0.5644840002059937 1.5764319896698 0.1000000014901161)
(0.5926169753074646 1.53770899772644 0.1000000014901161)
(0.5885459780693054 1.546471953392029 0.1000000014901161)
(0.5836470127105713 1.554800987243652 0.1000000014901161)
(0.5981370210647583 1.519212961196899 0.1000000014901161)
(0.5958250164985657 1.528594970703125 0.1000000014901161)
(0.5995330214500427 1.509650945663452 0)
(0.5981370210647583 1.519212961196899 0)
(0.5958250164985657 1.528594970703125 0)
(0.5926169753074646 1.53770899772644 0)
(0.5885459780693054 1.546471953392029 0)
(0.5836470127105713 1.554800987243652 0)
(0.5779669880867004 1.562618017196655 0)
(0.5715600252151489 1.569851040840149 0)
(0.5644840002059937 1.5764319896698 0)
(0.5568060278892517 1.582298040390015 0)
(0.5485979914665222 1.58739697933197 0)
(0.5399360060691833 1.591678977012634 0)
(0.5309020280838013 1.59510600566864 0)
(0.5215780138969421 1.597643971443176 0)
(0.5120540261268616 1.599271059036255 0)
(0.5024160146713257 1.599971055984497 0)
(0.4927569925785065 1.599737048149109 0)
(0.4831640124320984 1.598572969436646 0)
(0.4737290143966675 1.596487998962402 0)
(0.4645389914512634 1.593502044677734 0)
(0.4556809961795807 1.589643001556396 0)
(0.4472360014915466 1.584946990013123 0)
(0.4392839968204498 1.579457998275757 0)
(0.4318979978561401 1.573227047920227 0)
(0.425148993730545 1.566311955451965 0)
(0.4190979897975922 1.558779001235962 0)
(0.4138030111789703 1.550696015357971 0)
(0.4093129932880402 1.542140007019043 0)
(0.4056690037250519 1.533190965652466 0)
(0.4029060006141663 1.523931980133057 0)
(0.4010489881038666 1.514449000358582 0)
(0.4001170098781586 1.504830956459045 0)
(0.4001170098781586 1.495169043540955 0)
(0.4010489881038666 1.485550999641418 0)
(0.4029060006141663 1.476068019866943 0)
(0.4056690037250519 1.466809034347534 0)
(0.4093129932880402 1.457859992980957 0)
(0.4138030111789703 1.449303984642029 0)
(0.4190979897975922 1.441220998764038 0)
(0.425148993730545 1.433688044548035 0)
(0.4318979978561401 1.426772952079773 0)
(0.4392839968204498 1.420542001724243 0)
(0.4472360014915466 1.415053009986877 0)
(0.4556809961795807 1.410356998443604 0)
(0.4645389914512634 1.406497955322266 0)
(0.4737290143966675 1.403512001037598 0)
(0.4831640124320984 1.401427030563354 0)
(0.4927569925785065 1.400262951850891 0)
(0.5024160146713257 1.400028944015503 0)
(0.5120540261268616 1.400728940963745 0)
(0.5215780138969421 1.402356028556824 0)
(0.5309020280838013 1.40489399433136 0)
(0.5399360060691833 1.408321022987366 0)
(0.5485979914665222 1.41260302066803 0)
(0.5568060278892517 1.417701959609985 0)
(0.5644840002059937 1.4235680103302 0)
(0.5715600252151489 1.430148959159851 0)
(0.5779669880867004 1.437381982803345 0)
(0.5836470127105713 1.445199012756348 0)
(0.5885459780693054 1.453528046607971 0)
(0.5926169753074646 1.46229100227356 0)
(0.5958250164985657 1.471405029296875 0)
(0.5981370210647583 1.480787038803101 0)
(0.5995330214500427 1.490349054336548 0)
)

// edges

299
(
(26 27)
(1 0)
(28 29)
(29 30)
(30 31)
(32 33)
(34 35)
(36 37)
(37 38)
(38 39)
(40 41)
(41 42)
(42 43)
(44 45)
(45 46)
(47 48)
(48 40)
(49 50)
(27 51)
(51 52)
(52 53)
(53 54)
(54 55)
(17 1)
(55 56)
(56 34)
(39 57)
(57 58)
(58 28)
(59 49)
(31 60)
(60 61)
(61 62)
(63 64)
(64 65)
(65 44)
(18 4)
(4 5)
(5 19)
(62 66)
(66 67)
(67 68)
(46 69)
(69 70)
(70 36)
(71 32)
(33 72)
(72 73)
(19 2)
(73 74)
(74 47)
(50 75)
(75 76)
(2 3)
(76 77)
(77 71)
(68 78)
(78 79)
(0 16)
(79 80)
(80 81)
(81 82)
(82 83)
(83 26)
(43 84)
(84 85)
(85 86)
(16 6)
(6 7)
(7 18)
(35 87)
(87 88)
(3 17)
(88 89)
(89 59)
(86 20)
(20 90)
(90 63)
(91 92)
(93 94)
(94 95)
(96 97)
(97 98)
(98 99)
(99 100)
(100 101)
(23 8)
(101 102)
(102 103)
(104 105)
(105 106)
(106 91)
(92 107)
(107 108)
(108 109)
(110 111)
(95 110)
(111 112)
(112 113)
(113 114)
(114 115)
(115 116)
(116 117)
(24 9)
(10 22)
(9 10)
(109 118)
(118 119)
(119 120)
(120 121)
(121 122)
(122 123)
(124 125)
(11 21)
(125 126)
(126 127)
(127 128)
(103 129)
(129 130)
(12 23)
(130 131)
(132 133)
(133 134)
(123 135)
(135 136)
(136 124)
(117 137)
(137 138)
(138 139)
(139 140)
(140 141)
(141 142)
(142 143)
(143 144)
(144 104)
(131 145)
(145 146)
(146 147)
(147 148)
(148 149)
(13 12)
(149 150)
(150 132)
(128 151)
(151 152)
(8 11)
(152 25)
(25 96)
(21 14)
(15 24)
(14 15)
(134 153)
(153 154)
(22 13)
(154 155)
(155 93)
(10 1)
(9 0)
(15 6)
(14 7)
(2 12)
(13 3)
(4 11)
(8 5)
(25 156)
(157 25)
(158 159)
(159 160)
(160 157)
(161 162)
(162 163)
(163 158)
(164 165)
(165 166)
(166 161)
(167 168)
(168 169)
(169 164)
(170 171)
(171 172)
(172 167)
(173 174)
(174 175)
(175 170)
(176 177)
(177 178)
(178 173)
(179 180)
(180 181)
(181 176)
(182 183)
(183 184)
(184 179)
(185 186)
(186 187)
(187 182)
(188 189)
(189 190)
(190 185)
(191 192)
(192 193)
(193 188)
(194 195)
(195 196)
(196 191)
(197 198)
(198 199)
(199 194)
(200 201)
(201 202)
(202 197)
(203 204)
(204 205)
(205 200)
(206 207)
(207 208)
(208 203)
(209 210)
(210 211)
(211 206)
(212 213)
(213 214)
(214 209)
(215 216)
(216 217)
(217 212)
(156 218)
(218 219)
(219 215)
(220 221)
(221 222)
(222 223)
(223 224)
(224 225)
(225 226)
(226 227)
(227 228)
(228 229)
(229 230)
(230 231)
(231 232)
(232 233)
(233 234)
(234 235)
(235 236)
(236 237)
(237 238)
(238 239)
(239 240)
(240 241)
(241 242)
(242 243)
(243 244)
(244 245)
(245 246)
(246 247)
(247 248)
(248 249)
(249 250)
(250 251)
(251 252)
(252 253)
(253 254)
(254 255)
(255 256)
(256 257)
(257 258)
(258 259)
(259 260)
(260 261)
(261 262)
(262 263)
(263 264)
(264 265)
(265 266)
(266 267)
(267 268)
(268 269)
(269 270)
(270 271)
(271 272)
(272 273)
(273 274)
(274 275)
(275 276)
(276 277)
(277 278)
(278 279)
(279 280)
(280 281)
(281 282)
(282 283)
(283 20)
(20 220)
(17 22)
(24 16)
(21 18)
(19 23)
(20 25)
)

// concaveStart mixedStart nonFeatureStart
16 16 26
// internalStart flatStart openStart multipleStart
294 298 298 298
// normals

568
(
(-0.9997068340334287 -0.0242125171524691 0)
(0.9988312904106855 0.04833273524770696 -0)
(0.9988312904106855 -0.04833273524770696 0)
(-0.9997068340334287 0.0242125171524691 0)
(-0 0 -1)
(0.9988312904106855 -0.04833273524770696 0)
(0 0 -1)
(-1 0 -0)
(0 0 -1)
(-0.0242198340927848 -0.9997066567931405 0)
(-0 0 -1)
(0.07243819438600044 -0.9973729031781924 0)
(0 0 -1)
(0.1684006302352079 -0.9857186351775972 0)
(0 0 -1)
(-0.3090417138608959 0.9510484840921205 0)
(0 0 -1)
(0.7485573435116293 0.6630700592507647 0)
(0 0 -1)
(-0.5680745458953789 -0.8229771019328297 0)
(0 0 -1)
(-0.4859854159816043 -0.8739669189695838 0)
(0 0 -1)
(-0.3993625206076082 -0.9167930939606481 0)
(0 0 -1)
(-0.8364948642439576 0.5479747641027669 0)
(0 0 -1)
(-0.8854807797854991 0.4646760039322716 0)
(0 0 -1)
(-0.9261594816737226 0.3771320915884266 0)
(0 0 -1)
(-0.8854807797854991 -0.4646760039322716 0)
(0 0 -1)
(-0.8364948642439576 -0.5479747641027669 0)
(0 0 -1)
(-0.7156504051402289 0.6984586584921302 0)
(0 0 -1)
(-0.7796232732041405 0.6262487939137784 0)
(0 -0 -1)
(0.2626416400880574 0.9648934495019931 0)
(0 -0 -1)
(0.9988312904106855 0.04833273524770696 0)
(0 -0 -1)
(0.9895102152350517 0.144462915467886 0)
(0 0 -1)
(0.9709527119647176 0.2392714590760046 0)
(0 -0 -1)
(0.9432736843389387 0.3320161990530647 0)
(0 -0 -1)
(0.9069108263964498 0.4213226233718151 0)
(0 0 -1)
(0 -1 0)
(0 -0 -1)
(0.8619539564201403 0.5069865649222542 0)
(0 0 -1)
(0.8089864854287854 0.5878272419627909 0)
(0 0 -1)
(-0.3090417138608959 -0.9510484840921205 0)
(0 0 -1)
(-0.215776854889187 -0.9764427012857082 0)
(0 0 -1)
(-0.1204628892206477 -0.9927178311688644 0)
(-0 0 -1)
(0.3546846389626535 0.9349859928811406 0)
(-0 0 -1)
(0.2626416400880574 -0.9648934495019931 0)
(-0 0 -1)
(0.3546846389626535 -0.9349859928811406 0)
(0 0 -1)
(0.4431525220804767 -0.8964462293822829 0)
(0 0 -1)
(-0.9813611067461976 -0.192172782063117 0)
(0 0 -1)
(-0.958244623069116 -0.2859497199843496 0)
(0 0 -1)
(-0.9261594816737226 -0.3771320915884266 0)
(0 0 -1)
(0 1 0)
(0 0 -1)
(1 0 0)
(0 -1 0)
(-0 0 -1)
(0.527685123352121 -0.8494400570922335 0)
(-0 0 -1)
(0.6070998395122778 -0.794625562679786 0)
(0 0 -1)
(0.6810278068564087 -0.7322575546133683 0)
(0 0 -1)
(-0.7796232732041405 -0.6262487939137784 0)
(0 0 -1)
(-0.7156504051402289 -0.6984586584921302 0)
(0 0 -1)
(-0.6448097971607969 -0.7643430679252948 0)
(0 -0 -1)
(-0.215776854889187 0.9764427012857082 0)
(0 0 -1)
(-0.3993625206076082 0.9167930939606481 0)
(0 0 -1)
(-0.4859854159816043 0.8739669189695838 0)
(0 0 -1)
(1 0 0)
(0 0 -1)
(-0.5680745458953789 0.8229771019328297 0)
(0 0 -1)
(-0.6448097971607969 0.7643430679252948 0)
(0 -0 -1)
(0.1684006302352079 0.9857186351775972 0)
(0 -0 -1)
(0.07243819438600044 0.9973729031781924 0)
(0 0 -1)
(0 -1 0)
(0 0 -1)
(-0.0242198340927848 0.9997066567931405 0)
(0 0 -1)
(-0.1204628892206477 0.9927178311688644 0)
(-0 0 -1)
(0.7485573435116293 -0.6630700592507647 0)
(-0 0 -1)
(0.8089864854287854 -0.5878272419627909 0)
(-0 -0 -1)
(0 1 0)
(-0 0 -1)
(0.8619539564201403 -0.5069865649222542 0)
(0 0 -1)
(0.9069108263964498 -0.4213226233718151 0)
(-0 0 -1)
(0.9432736843389387 -0.3320161990530647 0)
(-0 0 -1)
(0.9709527119647176 -0.2392714590760046 0)
(0 0 -1)
(0.9895102152350517 -0.144462915467886 0)
(0 0 -1)
(-0.958244623069116 0.2859497199843496 0)
(0 0 -1)
(-0.9813611067461976 0.192172782063117 0)
(0 0 -1)
(-0.9953375096543724 0.09645331448442912 0)
(0 0 -1)
(-1 0 -0)
(0 0 -1)
(0 1 0)
(1 0 0)
(0 -0 -1)
(0.6810278068564087 0.7322575546133683 0)
(0 -0 -1)
(0.6070998395122778 0.794625562679786 0)
(0 0 -1)
(-1 0 -0)
(0 -0 -1)
(0.527685123352121 0.8494400570922335 0)
(0 0 -1)
(0.4431525220804767 0.8964462293822829 0)
(0 0 -1)
(-0.9997068340334287 0.0242125171524691 0)
(0 0 -1)
(0 0 -1)
(-0.9953375096543724 -0.09645331448442912 0)
(0 0 1)
(0.2626416400880574 -0.9648934495019931 0)
(0 0 1)
(0.6810278068564087 0.7322575546133683 0)
(0 0 1)
(0.7485573435116293 0.6630700592507647 0)
(0 0 1)
(-0.9953375096543724 0.09645331448442912 0)
(0 0 1)
(-0.9813611067461976 0.192172782063117 0)
(0 0 1)
(-0.958244623069116 0.2859497199843496 0)
(0 0 1)
(-0.9261594816737226 0.3771320915884266 0)
(0 0 1)
(-0.8854807797854991 0.4646760039322716 0)
(0 0 1)
(-0 -1 -0)
(0 0 1)
(-0.8364948642439576 0.5479747641027669 0)
(0 0 1)
(-0.7796232732041405 0.6262487939137784 0)
(0 0 1)
(0.527685123352121 -0.8494400570922335 0)
(0 0 1)
(0.4431525220804767 -0.8964462293822829 0)
(0 0 1)
(0.3546846389626535 -0.9349859928811406 0)
(0 0 1)
(0.1684006302352079 -0.9857186351775972 0)
(0 0 1)
(0.07243819438600044 -0.9973729031781924 0)
(0 0 1)
(-0.0242198340927848 -0.9997066567931405 -0)
(0 0 1)
(0.8619539564201403 0.5069865649222542 0)
(0 0 1)
(0.8089864854287854 0.5878272419627909 0)
(0 0 1)
(0.9069108263964498 0.4213226233718151 0)
(0 0 1)
(0.9432736843389387 0.3320161990530647 0)
(0 0 1)
(0.9709527119647176 0.2392714590760046 0)
(0 0 1)
(0.9895102152350517 0.144462915467886 0)
(0 0 1)
(0.9988312904106855 0.04833273524770696 0)
(0 0 1)
(0.9988312904106855 -0.04833273524770696 0)
(0 0 1)
(-0 1 0)
(0 0 1)
(-0 -1 -0)
(-1 0 0)
(-0 0 1)
(-0.1204628892206477 -0.9927178311688644 -0)
(-0 0 1)
(-0.215776854889187 -0.9764427012857082 -0)
(0 0 1)
(-0.3090417138608959 -0.9510484840921205 -0)
(-0 0 1)
(-0.3993625206076082 -0.9167930939606481 -0)
(-0 0 1)
(-0.4859854159816043 -0.8739669189695838 -0)
(0 0 1)
(-0.5680745458953789 -0.8229771019328297 -0)
(0 -0 1)
(-0.8364948642439576 -0.5479747641027669 -0)
(0 0 1)
(-0 1 0)
(-0 0 1)
(-0.8854807797854991 -0.4646760039322716 -0)
(-0 0 1)
(-0.9261594816737226 -0.3771320915884266 -0)
(0 0 1)
(-0.958244623069116 -0.2859497199843496 -0)
(0 0 1)
(-0.7156504051402289 0.6984586584921302 0)
(0 0 1)
(-0.6448097971607969 0.7643430679252948 0)
(0 0 1)
(1 0 0)
(0 0 1)
(-0.5680745458953789 0.8229771019328297 0)
(0 0 1)
(0.1684006302352079 0.9857186351775972 0)
(0 0 1)
(0.2626416400880574 0.9648934495019931 0)
(-0 0 1)
(-0.6448097971607969 -0.7643430679252948 -0)
(-0 0 1)
(-0.7156504051402289 -0.6984586584921302 -0)
(0 0 1)
(-0.7796232732041405 -0.6262487939137784 -0)
(0 -0 1)
(0.9895102152350517 -0.144462915467886 0)
(0 -0 1)
(0.9709527119647176 -0.2392714590760046 0)
(0 0 1)
(0.9432736843389387 -0.3320161990530647 0)
(0 -0 1)
(0.9069108263964498 -0.4213226233718151 0)
(0 -0 1)
(0.8619539564201403 -0.5069865649222542 0)
(0 0 1)
(0.8089864854287854 -0.5878272419627909 0)
(0 -0 1)
(0.7485573435116293 -0.6630700592507647 0)
(0 -0 1)
(0.6810278068564087 -0.7322575546133683 0)
(0 0 1)
(0.6070998395122778 -0.794625562679786 0)
(0 0 1)
(-0.4859854159816043 0.8739669189695838 0)
(0 0 1)
(-0.3993625206076082 0.9167930939606481 0)
(0 0 1)
(-0.3090417138608959 0.9510484840921205 0)
(0 0 1)
(-0.215776854889187 0.9764427012857082 0)
(0 0 1)
(-0.1204628892206477 0.9927178311688644 0)
(0 0 1)
(-0 -1 -0)
(0 0 1)
(-0.0242198340927848 0.9997066567931405 0)
(0 0 1)
(0.07243819438600044 0.9973729031781924 0)
(-0 0 1)
(-0.9813611067461976 -0.192172782063117 -0)
(-0 0 1)
(-0.9953375096543724 -0.09645331448442912 -0)
(0 0 1)
(1 0 0)
(0 0 1)
(-0.9997068340334287 -0.0242125171524691 -0)
(0 0 1)
(0 -0 1)
(1 0 0)
(0 0 1)
(-1 0 0)
(-0 1 0)
(0 0 1)
(0.3546846389626535 0.9349859928811406 0)
(0 0 1)
(0.4431525220804767 0.8964462293822829 0)
(0 -0 1)
(-1 0 -0)
(0 0 1)
(0.527685123352121 0.8494400570922335 0)
(0 0 1)
(0.6070998395122778 0.794625562679786 0)
(0 0 1)
(0.9988312904106855 0.04833273524770696 0)
(0 0 1)
(0 -0 1)
(0.9432717523385786 -0.3320216879062376 0)
(0 -0 1)
(0.9709527119647176 -0.2392714590760046 0)
(0 0 1)
(0.9895102152350517 -0.144462915467886 0)
(0 -0 1)
(0.8089864854287854 -0.5878272419627909 0)
(0 -0 1)
(0.8619553042024893 -0.5069842734811347 0)
(0 0 1)
(0.9069108263964498 -0.4213226233718151 0)
(0 -0 1)
(0.6071013274604921 -0.7946244258740782 0)
(0 -0 1)
(0.6810262688625955 -0.7322589850040023 0)
(0 0 1)
(0.7485588743879807 -0.6630683309999047 0)
(0 -0 1)
(0.354685661839621 -0.9349856048546362 0)
(0 -0 1)
(0.4431525220804767 -0.8964462293822829 0)
(0 0 1)
(0.5276837408945315 -0.8494409158944211 0)
(0 -0 1)
(0.07243797157048587 -0.997372919361035 0)
(0 -0 1)
(0.1684011422480668 -0.9857185477049453 0)
(0 0 1)
(0.2626408585149202 -0.964893662243952 0)
(-0 0 1)
(-0.215776854889187 -0.9764427012857082 0)
(-0 0 1)
(-0.1204632580295997 -0.992717786415099 0)
(0 0 1)
(-0.02421975940780257 -0.9997066586025264 0)
(-0 0 1)
(-0.4859867259578177 -0.8739661905318771 0)
(-0 0 1)
(-0.3993997878312372 -0.9167768591540488 0)
(0 0 1)
(-0.3090108932169406 -0.951058498659924 0)
(-0 0 1)
(-0.7156488634602924 -0.6984602381152357 0)
(-0 0 1)
(-0.644811317176459 -0.7643417856176384 0)
(0 0 1)
(-0.568073103929103 -0.8229780972737698 0)
(-0 0 1)
(-0.8854782416287237 -0.4646808405799657 0)
(-0 0 1)
(-0.8364976916954165 -0.5479704479150677 0)
(0 0 1)
(-0.7796232732041405 -0.6262487939137784 0)
(-0 0 1)
(-0.9813605251012708 -0.1921757523023083 0)
(-0 0 1)
(-0.9582437779246952 -0.285952552128159 0)
(0 0 1)
(-0.926161636273429 -0.3771268002878138 0)
(0 0 1)
(-0.9953381018125724 0.09644720358903711 0)
(0 0 1)
(-1 -0 0)
(0 0 1)
(-0.9953381018125724 -0.09644720358903711 0)
(0 0 1)
(-0.926161636273429 0.3771268002878138 0)
(0 0 1)
(-0.9582437779246952 0.285952552128159 0)
(0 0 1)
(-0.9813605251012708 0.1921757523023083 0)
(0 0 1)
(-0.7796232732041405 0.6262487939137784 0)
(0 0 1)
(-0.8364976916954165 0.5479704479150677 0)
(0 0 1)
(-0.8854782416287237 0.4646808405799657 0)
(0 0 1)
(-0.568073103929103 0.8229780972737698 0)
(0 0 1)
(-0.644811317176459 0.7643417856176384 0)
(0 0 1)
(-0.7156488634602924 0.6984602381152357 0)
(0 0 1)
(-0.3090108932169406 0.951058498659924 0)
(0 0 1)
(-0.3993997878312372 0.9167768591540488 0)
(0 0 1)
(-0.4859867259578177 0.8739661905318771 0)
(0 0 1)
(-0.02421975940780257 0.9997066586025264 0)
(0 0 1)
(-0.1204632580295997 0.992717786415099 0)
(0 0 1)
(-0.215776854889187 0.9764427012857082 0)
(0 0 1)
(0.2626408585149202 0.964893662243952 0)
(0 0 1)
(0.1684011422480668 0.9857185477049453 0)
(0 0 1)
(0.07243797157048587 0.997372919361035 0)
(0 0 1)
(0.5276837408945315 0.8494409158944211 0)
(0 0 1)
(0.4431525220804767 0.8964462293822829 0)
(0 0 1)
(0.354685661839621 0.9349856048546362 0)
(0 0 1)
(0.7485588743879807 0.6630683309999047 0)
(0 0 1)
(0.6810262688625955 0.7322589850040023 0)
(0 0 1)
(0.6071013274604921 0.7946244258740782 0)
(0 0 1)
(0.9069108263964498 0.4213226233718151 0)
(0 0 1)
(0.8619553042024893 0.5069842734811347 0)
(0 0 1)
(0.8089864854287854 0.5878272419627909 0)
(0 0 1)
(0.9895102152350517 0.144462915467886 0)
(0 0 1)
(0.9709527119647176 0.2392714590760046 0)
(0 0 1)
(0.9432717523385786 0.3320216879062376 0)
(0.9895102152350517 0.144462915467886 -0)
(0 0 -1)
(0.9709527119647176 0.2392714590760046 -0)
(0 -0 -1)
(0.9432717523385786 0.3320216879062376 -0)
(0 -0 -1)
(0.9069108263964498 0.4213226233718151 -0)
(0 0 -1)
(0.8619553042024893 0.5069842734811347 -0)
(0 -0 -1)
(0.8089864854287854 0.5878272419627909 -0)
(0 -0 -1)
(0.7485588743879807 0.6630683309999047 -0)
(0 0 -1)
(0.6810262688625955 0.7322589850040023 -0)
(0 -0 -1)
(0.6071013274604921 0.7946244258740782 -0)
(0 -0 -1)
(0.5276837408945315 0.8494409158944211 -0)
(0 0 -1)
(0.4431525220804767 0.8964462293822829 -0)
(0 -0 -1)
(0.354685661839621 0.9349856048546362 -0)
(0 -0 -1)
(0.2626408585149202 0.964893662243952 -0)
(0 0 -1)
(0.1684011422480668 0.9857185477049453 -0)
(0 -0 -1)
(0.07243797157048587 0.997372919361035 -0)
(0 -0 -1)
(-0.02421975940780257 0.9997066586025264 0)
(0 0 -1)
(-0.1204632580295997 0.992717786415099 0)
(0 0 -1)
(-0.215776854889187 0.9764427012857082 0)
(0 0 -1)
(-0.3090108932169406 0.951058498659924 0)
(0 0 -1)
(-0.3993997878312372 0.9167768591540488 0)
(0 0 -1)
(-0.4859867259578177 0.8739661905318771 0)
(0 0 -1)
(-0.568073103929103 0.8229780972737698 0)
(0 0 -1)
(-0.644811317176459 0.7643417856176384 0)
(0 0 -1)
(-0.7156488634602924 0.6984602381152357 0)
(0 0 -1)
(-0.7796232732041405 0.6262487939137784 0)
(0 0 -1)
(-0.8364976916954165 0.5479704479150677 0)
(0 0 -1)
(-0.8854782416287237 0.4646808405799657 0)
(0 0 -1)
(-0.926161636273429 0.3771268002878138 0)
(0 0 -1)
(-0.9582437779246952 0.285952552128159 0)
(0 0 -1)
(-0.9813605251012708 0.1921757523023083 0)
(0 0 -1)
(-0.9953381018125724 0.09644720358903711 0)
(0 0 -1)
(-1 0 0)
(0 0 -1)
(-0.9953381018125724 -0.09644720358903711 0)
(0 0 -1)
(-0.9813605251012708 -0.1921757523023083 0)
(0 0 -1)
(-0.9582437779246952 -0.285952552128159 0)
(0 0 -1)
(-0.926161636273429 -0.3771268002878138 0)
(0 0 -1)
(-0.8854782416287237 -0.4646808405799657 0)
(0 0 -1)
(-0.8364976916954165 -0.5479704479150677 0)
(0 0 -1)
(-0.7796232732041405 -0.6262487939137784 0)
(0 0 -1)
(-0.7156488634602924 -0.6984602381152357 0)
(0 0 -1)
(-0.644811317176459 -0.7643417856176384 0)
(0 0 -1)
(-0.568073103929103 -0.8229780972737698 0)
(0 0 -1)
(-0.4859867259578177 -0.8739661905318771 0)
(0 0 -1)
(-0.3993997878312372 -0.9167768591540488 0)
(0 0 -1)
(-0.3090108932169406 -0.951058498659924 0)
(0 0 -1)
(-0.215776854889187 -0.9764427012857082 0)
(0 0 -1)
(-0.1204632580295997 -0.992717786415099 0)
(0 0 -1)
(-0.02421975940780257 -0.9997066586025264 0)