/*--------------------------------*- C++ -*----------------------------------*\
| =========                 |                                                 |
| \\      /  F ield         | OpenFOAM: The Open Source CFD Toolbox           |
|  \\    /   O peration     | Version:  2206                                  |
|   \\  /    A nd           | Website:  www.openfoam.com                      |
|    \\/     M anipulation  |                                                 |
\*---------------------------------------------------------------------------*/
FoamFile
{
    version     2.0;
    format      ascii;
    arch        "LSB;label=32;scalar=64";
    class       scalarField;
    location    "0/coarseMesh";
    object      snapshot0_stdmd16_U;
}
// * * * * * * * * * * * * * * * * * * * * * * * * * * * * * * * * * * * * * //


15792
(
0.01342357235933477
0.01348892308334224
0.01355259652578741
0.01362316088862687
0.0137068327312579
0.01378057883435865
0.01387058480512693
0.01395470331619958
0.01403649069839737
0.01412488288607162
0.0142007346821988
0.01427738321712649
0.01433903887702315
0.01440049877924561
0.0144439266297562
0.01448073849053482
0.01449550883929615
0.01450049626034009
0.01449212892036739
0.01447025585029472
0.01443264632652526
0.01438462798601996
0.01432611246577792
0.01425843933030613
0.01417970919339822
0.01411249130002625
0.01401841830603893
0.01393560274752513
0.01385667600813893
0.01377073505121779
0.01369021032221527
0.01361876275857948
0.01354729238589483
0.0134763331519888
0.01341836688490859
0.01336450328099753
0.01330711332752326
0.01326351526304964
0.01322398107181546
0.01318378293167921
0.01315118932520152
0.01312354958998008
0.01309705623098378
0.01307370782745491
0.0130552381042268
0.01303852848851918
0.01302254253797648
0.01301071969412299
0.01300047693310965
0.01299035708496239
0.0129829933753096
0.01297685699120999
0.01297116499593888
0.01296670204078516
0.01296330105703006
0.01296038019666278
0.01295797182608333
0.01295634263279776
0.01295509778032884
0.01295410274957775
0.01295358711170821
0.01295331254757126
0.01295326196254539
0.01295341841389111
0.01295371654420277
0.01295418176895799
0.01295476604797891
0.01295538304129273
0.0129560903474673
0.0129569332373409
0.01295770626053988
0.01295851151752902
0.01295945960287653
0.01296025848751266
0.01296119483844909
0.01296204107558208
0.0129628932313628
0.01296379291389358
0.01296456078435048
0.01296546967809682
0.01296621443267661
0.01296701105128102
0.01296777842675842
0.01296846543858876
0.01296924323424379
0.01296986718208548
0.01297056411197487
0.01297118087270128
0.01297177328767648
0.01297239070838823
0.01340685408470082
0.01347563237161353
0.01354317791947488
0.01361849209169688
0.01370866958758589
0.01378823832900757
0.01388658594283165
0.01397915540685221
0.01406938040360548
0.0141673352137466
0.01425193262119168
0.01433738426129181
0.0144068349244356
0.01447748096600807
0.01452473636591344
0.01456628439194713
0.01458491422078764
0.01458834463279358
0.01457867657256518
0.01455395871663584
0.01451160696186766
0.01445727549826288
0.01439142860578069
0.01431562884457399
0.01422783955319942
0.01415324314064786
0.0140490832763159
0.01395789778453732
0.01387144685412314
0.01377787837296536
0.01369077245640768
0.01361398468655096
0.01353767937373522
0.01346247121565102
0.01340149149012135
0.01334521603640064
0.01328573694263343
0.01324092655582738
0.0132005911794143
0.01315992647765265
0.01312724881839333
0.01309977546334072
0.01307368469607735
0.01305092502106106
0.01303311136876213
0.01301716706908995
0.01300210721051098
0.01299112612244529
0.01298174294519309
0.01297263588132259
0.01296614569962566
0.01296085279183937
0.01295607852313793
0.01295246560284375
0.01294982816357096
0.01294768623915773
0.01294606185321002
0.012945094534726
0.01294448674442079
0.01294419238392199
0.01294423662584373
0.01294449278175397
0.01294501440555362
0.01294565908072948
0.01294639877608662
0.01294731780382432
0.01294832834723266
0.01294931050912232
0.01295037536181959
0.01295158803835315
0.01295266223851047
0.01295375366398258
0.01295501052365337
0.01295605022504568
0.01295725055404095
0.01295832127267967
0.012959387555085
0.01296050236855638
0.01296144575162371
0.01296255381219813
0.01296345552162826
0.0129644143436775
0.01296533299560771
0.01296615146778701
0.01296707395141069
0.01296781093481156
0.01296863114857104
0.01296935457961128
0.01297004734454165
0.01297076732176917
0.01338658521589103
0.01345881792983149
0.01353036799795795
0.01361066955529869
0.01370785829799955
0.01379373409976337
0.01390133729340207
0.01400336394596764
0.01410305751202525
0.01421188275586332
0.01430642186965331
0.01440200964566457
0.01448153099498835
0.01456031268409398
0.01461346854262694
0.0146604668989316
0.01468187699599911
0.01468656551726884
0.01467397002990717
0.01464585300689273
0.01459811937486454
0.0145363793947015
0.01446206979849839
0.01437693907096401
0.01427885840573546
0.01419588327513151
0.01408031692076384
0.01397975347283424
0.01388494429548815
0.01378299315206797
0.01368874499604631
0.01360624099136055
0.01352484018300523
0.01344524160052607
0.01338122296871454
0.01332258250320205
0.01326114387720537
0.01321527602403088
0.01317432035054442
0.01313341560200497
0.0131008698961431
0.01307376954645113
0.01304830096959353
0.01302634223503585
0.01300936625999423
0.01299436282085479
0.01298040860504859
0.01297041071323685
0.01296201634255434
0.01295405763118088
0.0129485459006191
0.0129441890160987
0.0129404241478058
0.01293773866176269
0.01293592859627123
0.01293462555873655
0.01293384049039009
0.01293357796447799
0.01293364552472705
0.01293409047975255
0.01293472292025152
0.01293553470171043
0.0129366531969264
0.0129378053851026
0.01293900273770177
0.01294039075750074
0.01294184060335642
0.01294319814846318
0.01294462971853569
0.01294622078613658
0.01294760249957308
0.01294898557488645
0.01295055652991956
0.01295184075988223
0.0129533086969068
0.01295460662769377
0.01295588932605699
0.01295722126968477
0.01295834156544368
0.0129596501293755
0.01296070965790889
0.01296183140030957
0.01296290183984415
0.01296385208844651
0.01296491947230026
0.0129657695562653
0.01296671302454348
0.01296754301728428
0.01296833595675092
0.01296915823979186
0.01336263970457817
0.01343824804856605
0.01351383504160953
0.01359925318156168
0.01370385389235423
0.01379646448538314
0.01391433447041755
0.01402695046992928
0.01413727948565216
0.0142584460120078
0.01436440254527308
0.01447165833179227
0.01456304739177746
0.01465081802635081
0.01471112636220253
0.01476447134489528
0.01478878034336267
0.01479553360825366
0.01477916149912598
0.0147470381171492
0.0146930276902966
0.01462263564648493
0.01453852661506286
0.01444265295657312
0.01433244071090514
0.01423967214663261
0.01411138858179594
0.01400047298972222
0.01389652245461553
0.01378550918360332
0.0136836457658783
0.01359513959993907
0.01350848174525249
0.01342445587365471
0.01335746107014248
0.01329658462553093
0.01323340159740229
0.01318669284815803
0.01314535000821145
0.01310447948200264
0.01307231524768987
0.01304581834508549
0.01302120940469257
0.01300027459503678
0.01298432231752454
0.01297043554468001
0.0129577625680243
0.01294888301706535
0.01294159845773825
0.01293491214073286
0.01293047260821605
0.01292713267049004
0.01292445544600536
0.01292276176135865
0.01292183078940123
0.01292141391140966
0.01292151045676211
0.01292198445363498
0.01292275476230205
0.01292396558369717
0.01292520480832565
0.01292658785471715
0.012928317861391
0.01292998828455158
0.01293165163339624
0.01293351586843758
0.01293541058018884
0.01293714733035995
0.01293894854205456
0.01294092016179816
0.01294261049264934
0.01294428574233671
0.01294617078349279
0.01294769911145301
0.01294943376189778
0.01295095780200006
0.01295245556237385
0.01295400298847452
0.01295529863251718
0.01295680568460301
0.01295802126466752
0.01295930393377067
0.01296052415279505
0.01296160431208216
0.01296281441538696
0.01296377580180528
0.01296484046976946
0.01296577516857134
0.01296666646851161
0.01296758913675
0.01333429707260081
0.01341317234440784
0.01349282010300123
0.01358349200287842
0.01369597444432248
0.01379574580393961
0.01392494857753718
0.01404943596479752
0.01417169922695753
0.01430691392583541
0.01442602571278777
0.01454675894090652
0.01465185592515879
0.01475022068391291
0.01481889549375942
0.01487966134128034
0.01490734978797387
0.01491643697403733
0.01489559235202953
0.01485872217946553
0.01479735440651923
0.01471678698135718
0.01462136891247122
0.01451305507363227
0.01438888481554132
0.01428494149517421
0.01414231114731367
0.01401984094810703
0.01390578883913447
0.0137848870802509
0.01367483933025014
0.01357999220245065
0.01348789111619537
0.01339940282709067
0.01332951428362907
0.01326656195877
0.01320189539001181
0.01315460473004578
0.0131131509665627
0.013072636924432
0.01304114530181034
0.01301551931905486
0.01299204443357288
0.01297239036997114
0.01295767552472188
0.01294510713261736
0.01293391673856534
0.01292631052914061
0.01292027471030065
0.01291500351574898
0.01291174440675171
0.01290951520741282
0.01290801681138068
0.01290739046980077
0.01290739978547059
0.01290792554071399
0.01290895484898068
0.01291020429513283
0.01291171147911497
0.01291372191754592
0.01291559213440316
0.01291756732896663
0.01291992905724136
0.01292213313309814
0.01292427502770413
0.01292662699895732
0.01292897615607057
0.01293109936157069
0.01293327648910526
0.01293563428286387
0.01293763715353733
0.01293960778157435
0.01294180979442607
0.01294358405158298
0.01294558700554617
0.01294733817035548
0.01294905166477266
0.01295081496702275
0.01295228606527235
0.01295399149147136
0.01295536285823776
0.01295680601794976
0.01295817546548118
0.01295938494006985
0.01296073698504348
0.01296180897570702
0.0129629939920974
0.01296403258599335
0.01296502141798787
0.01296604356089317
0.01330098753109572
0.01338292966277207
0.01346658709825104
0.01356257848221208
0.01368338382468935
0.01379071015201555
0.0139323967319917
0.01407018765837508
0.01420585942225907
0.01435705923830751
0.01449141150023195
0.01462804864376026
0.01474840133001667
0.01485966058511926
0.01493816540276918
0.01500764212820893
0.0150392793877839
0.01505049725784881
0.01502526255737567
0.01498230231168348
0.01491222782975032
0.01481968999693892
0.01471119223175117
0.01458842749787765
0.0144481662056306
0.0143314522720707
0.01417262198084287
0.0140372549670665
0.01391205045619906
0.01378038214947979
0.01366157380970329
0.01356007121270295
0.01346239010707149
0.01336947481944821
0.0132968461219954
0.01323205217493926
0.0131662479839166
0.01311870110840131
0.01307747313962286
0.01303769793776345
0.01300721681785294
0.01298276688559338
0.01296073432677036
0.01294264542645625
0.01292940175121069
0.01291836993653027
0.01290887748467805
0.01290270864231463
0.01289806727164396
0.01289435942233344
0.01289239204465335
0.01289136924256946
0.01289114185074265
0.01289165852725855
0.01289266890998516
0.01289419291711666
0.01289620490568572
0.01289826744047981
0.01290054421689136
0.01290338630379667
0.01290591024170853
0.0129084969992197
0.01291150901496516
0.01291426071989972
0.01291689238410831
0.0129197422350814
0.01292255411527986
0.0129250699093426
0.01292762813507002
0.01293037660083186
0.01293269502488419
0.01293496337879156
0.01293748433448006
0.0129395056473018
0.01294177773212567
0.01294375639714367
0.01294568569571647
0.01294766467172679
0.01294931085081184
0.01295121400104003
0.01295274047323189
0.01295434326296591
0.01295586099787698
0.01295719885857254
0.01295869170615966
0.01295987332544338
0.01296117754131302
0.0129623189657559
0.01296340426624058
0.01296452473620843
0.01326208891225682
0.01334678255216172
0.01343429952704516
0.01353557657771138
0.01366509128377203
0.01378030786365365
0.01393570548334053
0.01408837774329679
0.01423915797046552
0.01440858113661517
0.01456063052188093
0.0147165434244162
0.01485328777036142
0.01498046244329981
0.0150705638962748
0.01515030865904766
0.01518657782843579
0.01519910812150392
0.01517091368366947
0.01511940077469484
0.01503898327591386
0.01493234983271416
0.01480859522860356
0.01466905226125402
0.0145102061685727
0.01437887456680209
0.01420173615484709
0.01405197673994556
0.01391447450438695
0.01377111463072063
0.01364297425868104
0.01353454164978726
0.01343121200072474
0.01333399636291666
0.0132588697759073
0.01319255862677665
0.01312606359524705
0.01307866342446789
0.01303806654414679
0.01299947913039416
0.01297039702944441
0.01294746821644525
0.01292722140849202
0.0129110101017163
0.01289949116148791
0.01289023005344129
0.01288266401425571
0.01287810465681778
0.01287500922563247
0.01287301725609755
0.01287245499719255
0.01287273518043827
0.01287387098546763
0.01287560563613129
0.01287767673038965
0.01288025306493755
0.01288329577642513
0.01288620724952606
0.01288928447557842
0.01289298806797038
0.01289618664288479
0.0128994026165455
0.01290308155161103
0.0129063931945034
0.01290952433809203
0.01291288065719023
0.01291616208397644
0.0129190753631939
0.01292201866992
0.01292516108021248
0.01292779708700339
0.01293036459205465
0.01293320548250314
0.01293547422668781
0.01293801546094167
0.01294022132625026
0.01294236586641186
0.01294455968972052
0.01294638007623693
0.01294847974289344
0.01295016020721997
0.01295192132701282
0.01295358600535581
0.01295505097930663
0.01295668311975114
0.01295797310830981
0.01295939507110478
0.01296063800351745
0.01296181847008277
0.01296303587905908
0.01321692812713215
0.01330391423333829
0.01339501213577154
0.01350140602049255
0.01363992602816443
0.01376327192222872
0.01393366522467582
0.0141029593447779
0.01427077150808873
0.01446102239196208
0.01463368089131007
0.01481214673661795
0.01496815287173339
0.01511417013132036
0.01521800946534171
0.01530990748513909
0.0153516237959989
0.01536552317667094
0.01533390777061475
0.01527192052243357
0.0151791665237955
0.01505584198819156
0.01491427187071132
0.01475521792710093
0.01457486941720726
0.01442677525763884
0.01422892706212028
0.01406311151844561
0.01391206935483405
0.01375605382799816
0.01361803064347304
0.01350245286247831
0.01339349695872521
0.0132922229812624
0.0132149495373431
0.01314755382248627
0.01308093302628976
0.01303417092082157
0.01299468728389129
0.01295780942171222
0.01293056884027609
0.01290954784189692
0.01289146600186429
0.01287747252039705
0.01286795101371802
0.01286070964566307
0.01285531023093647
0.01285253929016185
0.01285114577951351
0.01285102506132114
0.0128519821776302
0.01285366175623839
0.01285625184141208
0.0128592777359672
0.01286246724641161
0.01286614768242225
0.0128702665854839
0.01287406051696094
0.01287796671131785
0.01288255901294966
0.01288645098060193
0.01289031175939981
0.01289467201510588
0.01289855400790925
0.01290219263698762
0.01290606228012397
0.01290981847170551
0.01291313277840071
0.0129164638442021
0.012920002147614
0.01292295670975004
0.01292582380611557
0.01292898458277316
0.01293150034008032
0.01293430989059331
0.01293674194781088
0.01293910050601396
0.01294150770078538
0.01294350090288988
0.01294579530192355
0.01294762819930554
0.01294954589660099
0.01295135576043805
0.01295294622267611
0.01295471576776308
0.012956112577607
0.01295765052673408
0.01295899338326316
0.0129602674719752
0.01296158018901185
0.01316478529486079
0.01325342756351272
0.01334766387553856
0.01345882726600911
0.01360651049959804
0.01373807734701042
0.01392477433331916
0.01411258723766893
0.01429960695348077
0.01451370447223274
0.01471045629321845
0.01491514650683523
0.01509421329515418
0.01526258371961597
0.01538274924215624
0.01548908232770014
0.01553721903224468
0.01555258603330669
0.01551663491472395
0.01544211705492426
0.01533463070740734
0.01519142406366787
0.01502899031063525
0.01484720813398482
0.01464195281707512
0.01447460044587946
0.01425330146233324
0.01406958190892806
0.01390366065748339
0.01373399996791382
0.01358558658504881
0.01346273289129608
0.0133482908659158
0.01324334362416883
0.01316440561542422
0.01309648603079817
0.01303044151012442
0.01298490879049295
0.01294710544389408
0.01291253716465883
0.01288763703355809
0.01286895296616409
0.01285345084273007
0.01284204220729097
0.0128348086443334
0.01282984936240091
0.01282686662226581
0.01282606817684588
0.01282653543365595
0.01282844238455872
0.01283103256999315
0.01283420649264239
0.01283833955104939
0.01284272719176503
0.0128470899969929
0.01285192318321016
0.01285716042305949
0.01286186743175055
0.01286662827300752
0.0128721333382672
0.01287673493822523
0.01288125373956375
0.01288630718846247
0.0128907678176156
0.01289492004734265
0.01289930796432086
0.01290354238714262
0.01290725979634063
0.01291097989437561
0.0129149146225851
0.01291818758796224
0.01292135367218166
0.01292483318970371
0.01292759470909915
0.01293067085289889
0.01293332735600392
0.0129358980227378
0.01293851644181902
0.01294068053379764
0.01294316728923437
0.01294515060361231
0.01294722266256678
0.0129491755311788
0.01295088949836849
0.01295279417623415
0.01295429596780157
0.01295594783220033
0.01295738876597699
0.01295875468988714
0.01296016083971268
0.01310490165880121
0.01319434695536
0.01329107187560469
0.01340642670479733
0.01356323396493805
0.01370289817865351
0.01390717615942519
0.01411553803443756
0.01432422174737585
0.01456565852900935
0.01479069031335919
0.01502618720560281
0.01523278030769988
0.01542776996137445
0.0155673667669185
0.01569093639224678
0.01574669431646735
0.01576360533299121
0.01572236102895007
0.01563261773647937
0.01550764953728147
0.01534070714626254
0.01515369322422689
0.01494526863828897
0.01471112261515098
0.01452162247009365
0.01427374911986786
0.01407008162516245
0.01388785098064908
0.01370355473428834
0.01354432304817941
0.01341418264726309
0.01329454704360843
0.01318648727557773
0.01310652337544461
0.01303879016177202
0.01297418035585053
0.01293057951418407
0.01289511546440459
0.01286353897066772
0.01284153560317296
0.01282565949586966
0.01281318590494617
0.01280475391450763
0.01280011454548226
0.01279771076315571
0.01279740207839333
0.0127987632549989
0.01280125100718425
0.01280534096193436
0.01280967568614655
0.01281443597816375
0.0128201968801945
0.01282601281355713
0.01283160000691725
0.01283763058772854
0.0128440241978266
0.01284967140823218
0.01285530922063211
0.01286174745231797
0.01286707205225022
0.01287225941816445
0.01287801511294874
0.01288306031903509
0.01288773019508197
0.01289263926604921
0.01289735349869752
0.01290147451456061
0.01290558342249564
0.01290991360762432
0.01291350364002117
0.01291696701417496
0.01292076298180382
0.01292376814673165
0.01292710824054671
0.01292998668363923
0.012932766844813
0.01293559365361709
0.01293792616497282
0.0129406022986703
0.01294273355016194
0.01294495728582799
0.01294705055191621
0.01294888568070956
0.01295092283563278
0.01295252747835384
0.01295429087720228
0.0129558277786881
0.01295728350782433
0.01295878097056385
0.01303649237122798
0.01312562568272096
0.01322392691861639
0.01334259908515378
0.01350821951062255
0.0136555663607925
0.01387859170215751
0.01410960509197443
0.01434272338309274
0.01461547576726575
0.01487378386942007
0.01514539671186553
0.01538454061766435
0.01561147715247338
0.01577461068727172
0.01591927271652274
0.015984276111731
0.01600272513946166
0.01595484291869601
0.01584628643205905
0.01570065119122666
0.01550561688318913
0.01528964784953188
0.01504966422703344
0.01478175982379223
0.01456679170524506
0.01428881760483843
0.01406297142285118
0.01386293490910328
0.01366306094975803
0.01349272288817346
0.01335545979785285
0.01323112483557614
0.01312073144285979
0.01304056687675933
0.0129739040521511
0.01291176393961522
0.01287091868623583
0.01283854984710158
0.0128107306075477
0.01279223627876382
0.01277967869676412
0.01277071347360991
0.01276567146183458
0.01276394531794033
0.01276437851644388
0.01276700540701969
0.01277071380278819
0.01277538028363589
0.01278180501056549
0.01278799162622254
0.01279442575656163
0.01280189398141031
0.01280919952212466
0.01281605739991938
0.01282332510368355
0.01283090820256185
0.01283751865109019
0.01284405189776807
0.01285143956102581
0.01285749731872102
0.01286336083199184
0.01286982473888874
0.01287545791928368
0.01288064726126968
0.012886078156377
0.0128912717756398
0.01289579524716197
0.01290029117562181
0.01290501428737087
0.01290891882374518
0.01291267666082247
0.01291678560986294
0.01292003141632798
0.0129236318773351
0.01292672898285844
0.01292971531243975
0.01293274698454556
0.01293524489825714
0.01293810682998495
0.01294038307706425
0.01294275534053353
0.01294498597802425
0.01294693957384929
0.01294910617655949
0.01295081125611405
0.01295268350491497
0.01295431400540216
0.0129558572686799
0.01295744368095958
0.01295876469294636
0.01304616354734512
0.01314479995492165
0.01326553527484158
0.01343926791497127
0.01359353410844268
0.01383621499197039
0.01409190663424853
0.0143524172720596
0.01466091100936165
0.01495796920142724
0.0152717099813153
0.01555131269136573
0.01581774023074446
0.01601069894537675
0.01618079252660561
0.01625605553604665
0.01627520448711577
0.01621814462004102
0.01608657113922029
0.01591545238385065
0.01568741368585783
0.01543797494746065
0.01516088653444999
0.01485277031428981
0.01460845596816401
0.01429645347539519
0.01404606126640315
0.01382672288227011
0.01361047872204975
0.01342899378859444
0.01328503570920619
0.01315677369617459
0.01304510691045116
0.01296579540295558
0.01290129153227406
0.01284285422962613
0.01280571696370092
0.01277729698116091
0.01275407998849123
0.01273975788697833
0.01273106397877176
0.01272611292529599
0.01272489105430749
0.01272640597346187
0.01272996185504402
0.01273578603740084
0.01274202663382945
0.01274902580800231
0.01275793068712385
0.01276607033578893
0.01277425945126581
0.01278350743173954
0.01279235734920098
0.01280052639349758
0.01280906513738988
0.01281786516013133
0.01282545724204937
0.01283290006508525
0.01284124886000243
0.01284804643630692
0.01285459048699195
0.01286176527523805
0.01286798713581576
0.0128736954260906
0.0128796465122861
0.01288531702321026
0.0128902400969896
0.01289511965360727
0.01290023157211768
0.01290444680879577
0.01290849514792065
0.01291291243320703
0.01291639499186237
0.01292025130031627
0.01292356302318916
0.01292675149096433
0.01292998382033577
0.01293264358589446
0.01293568715253633
0.01293810501277776
0.01294062221982786
0.01294298681631145
0.01294505586335214
0.01294734854129668
0.01294915137853504
0.01295112950372555
0.01295285098327702
0.01295447927289429
0.01295615203039891
0.01287094867544667
0.01295484574555355
0.01305219169708712
0.01317327246029426
0.01335382856492034
0.01351385700801548
0.01377651558846516
0.01405852821021549
0.01435068571794678
0.0146992288633126
0.01504302406789693
0.01540800681556628
0.01572805691926404
0.01604165900542473
0.01628141621576762
0.01648099854100894
0.01655171559830605
0.0165751967402468
0.0165111201494549
0.01635825896132331
0.01615359754075629
0.015885434246232
0.0155975452465011
0.01527915280687311
0.01492246718641351
0.01464406342327503
0.01429365994547449
0.01401629357201722
0.0137762741683601
0.01354319024346346
0.01335093912138383
0.01320111690830101
0.01307009863509341
0.01295859973520926
0.01288148700274818
0.01282047674595493
0.01276719507137337
0.01273484795752903
0.01271132125244517
0.01269361975811225
0.01268417420059433
0.01267991584126968
0.01267950366095978
0.01268254283351903
0.01268763053738437
0.01269459439082264
0.01270387315789991
0.01271282480708929
0.0127223032944439
0.01273382428355391
0.01274400971503021
0.01275402685345362
0.01276511835286235
0.01277555962535197
0.0127850735708247
0.01279491066789435
0.01280494871259645
0.01281353573248558
0.01282189759593169
0.01283121434596069
0.01283875471129742
0.01284598035185843
0.0128538652773723
0.01286067376266972
0.01286689810465959
0.012873365423345
0.01287950825546237
0.01288482638405305
0.01289008459011855
0.01289557962969677
0.01290010054486576
0.01290443432033717
0.01290915416842304
0.01291286874765032
0.01291697549050683
0.01292049705060868
0.01292388295056351
0.01292731107975888
0.01293012863872189
0.01293334913358193
0.01293590482901239
0.01293856302322417
0.01294105784895221
0.01294323907035528
0.01294565416435193
0.01294755184804338
0.01294963261050337
0.01295144220982905
0.01295315278737016
0.01295490904856874
0.01277237482520699
0.01285062978423445
0.01294466527661921
0.01306388715405956
0.01324925610054096
0.01341332498119125
0.01369539054592729
0.0140065083742211
0.01433191967779583
0.01473151463596077
0.01510876446018617
0.01555884775711475
0.01592816019438524
0.0163384695478291
0.01661573598936498
0.01684866964198645
0.01694125876550474
0.01692906644430976
0.01685396602538026
0.01666497329928902
0.01641976606145225
0.0161002526785415
0.0157637608788104
0.01540130950195973
0.01498818019728092
0.01467013625794446
0.01427636833885752
0.01396955522092691
0.01370773396256265
0.01345789048352661
0.01325589452480359
0.01310162126457536
0.01296957582636109
0.01286019831940543
0.01278699742911414
0.01273109914304464
0.01268464874177086
0.01265828735558535
0.01264066914635602
0.01262944568115829
0.01262561008855815
0.0126263779913242
0.01263104185031087
0.01263878816036906
0.01264777958678857
0.01265843176470699
0.01267141343041445
0.01268324541352257
0.01269533952137535
0.01270960029402369
0.01272191386065096
0.01273382234517109
0.01274681103570842
0.01275888178825093
0.01276976684735746
0.01278092236593255
0.01279221268260792
0.0128018025155042
0.01281108794617366
0.01282137438331033
0.01282965669386697
0.01283756155499438
0.01284615240347629
0.01285354267189282
0.01286027778371681
0.0128672550593206
0.01287386358921147
0.0128795705613342
0.01288520088935966
0.01289107184229011
0.01289589222356793
0.01290050528053376
0.01290552082704124
0.01290946190780784
0.01291381284597458
0.01291753878036129
0.01292111677197851
0.012924735223257
0.01292770603058301
0.01293109823902623
0.01293378764516793
0.01293658257163738
0.01293920366020272
0.0129414935853182
0.01294402720772997
0.01294601662428643
0.01294819653746042
0.01295009116539444
0.01295188106508501
0.01295371775331221
0.01266262362165344
0.01273267282145741
0.01282096062133916
0.01293560645812957
0.01312340642316868
0.01328910942484272
0.01358976172365076
0.01392793004341814
0.01427989445599365
0.01472494515017207
0.01521355115127463
0.01569147842396064
0.01619731237439059
0.01662928926904265
0.01695983074762448
0.01722890563477269
0.01735628358132281
0.01736158032259775
0.01722955640895707
0.01702800457016405
0.01672242721731883
0.01634261918550443
0.0159384113834533
0.01551762122258826
0.01504475418580165
0.01468275082867947
0.01424010220090634
0.01390118082324923
0.01361675475815745
0.013350931869181
0.01314099741807201
0.01298440017879472
0.01285373959939999
0.01274903416704791
0.01268184604843623
0.01263294112884283
0.01259517081554268
0.01257606621736734
0.01256541942623659
0.01256167717881163
0.01256421542006106
0.01257062257234678
0.01258091454880533
0.0125938193674917
0.01260704301224342
0.01262165625278835
0.01263857674689784
0.01265344587958592
0.01266827894202432
0.01268538816760549
0.01269989980591029
0.01271375153845984
0.01272867938593896
0.01274240758477243
0.01275468141019832
0.01276716722917435
0.01277971637155329
0.01279031081947241
0.01280051884105706
0.01281177103974069
0.0128207902237841
0.0128293681503233
0.01283865687563068
0.01284662101434028
0.01285385898710343
0.01286133739203139
0.01286840273479511
0.01287449050809288
0.01288048473002488
0.01288672272956668
0.01289183505910916
0.01289672001063801
0.01290202309366051
0.01290618424223695
0.01291077222140705
0.01291469632806154
0.01291846038697174
0.01292226300984979
0.01292538198972426
0.0129289401464086
0.01293175876884373
0.01293468585637452
0.01293742898569432
0.01293982392571552
0.01294247192469924
0.01294454972738242
0.01294682502697892
0.01294880134044381
0.01295066735729783
0.01295258115503302
0.01254147770886369
0.01260014610331406
0.01267949667393909
0.01278590636647293
0.01297363990536356
0.01314016717240044
0.01345662847807149
0.01377991747191463
0.01422089143294599
0.01471350299244758
0.01528419951382707
0.01585691787902884
0.01646159668697147
0.01694662725335386
0.01736976554249553
0.01767998419756804
0.01781346658840276
0.01783675365488624
0.01767931014839327
0.01742841849971952
0.01705385557288333
0.01662388500691318
0.01612399885749257
0.0156267916424678
0.01508354538759827
0.01467722310048558
0.0141805858963367
0.0138073937531621
0.01350073381097002
0.01322088224042087
0.01300540853756278
0.01284884844694436
0.0127221149112631
0.01262470829382961
0.01256565923268268
0.01252564052632602
0.01249843739829264
0.01248793462798694
0.01248542626060984
0.01249029797978112
0.01250007780945541
0.01251281120029724
0.0125293337321433
0.01254787278731274
0.01256566234748677
0.01258450412216422
0.01260558585821274
0.01262363387790977
0.01264131300469883
0.01266136024724113
0.01267812392693054
0.01269395603840268
0.01271084979744884
0.01272625015359498
0.01273991918791284
0.01275373642231958
0.0127675407881202
0.01277913360628103
0.01279025592347943
0.01280246240006657
0.01281220770930117
0.01282144743923077
0.01283142079897268
0.0128399467089899
0.01284767603743331
0.01285564323388755
0.01286315337450052
0.01286961135477007
0.01287595885694062
0.01288255272016427
0.01288794770230172
0.01289309553777915
0.01289867609822283
0.01290304939533202
0.01290786576177223
0.01291198067187178
0.01291592373453151
0.01291990338940508
0.0129231647014052
0.01292688222817948
0.01292982497259113
0.01293287905400357
0.01293573945138827
0.01293823523610383
0.01294099293263255
0.01294315537598854
0.0129455218892975
0.01294757622040505
0.0129495148706916
0.01295150219939762
0.01240808792030915
0.01245112454084299
0.01251668733528476
0.01260967550254889
0.01279053221797803
0.0129679595853665
0.01326488563393149
0.01363196890491351
0.01410230194911858
0.01467771631677579
0.01532380828167961
0.01604614847535089
0.01671544217888477
0.01738576960789525
0.0179136615701129
0.01827151078327523
0.01841669220515955
0.01835005834842538
0.01819027412373137
0.01785195909029229
0.01741649206140133
0.01689793881303466
0.01633210645804833
0.01572631248058304
0.01510741899791905