/*--------------------------------*- C++ -*----------------------------------*\
| =========                 |                                                 |
| \\      /  F ield         | OpenFOAM: The Open Source CFD Toolbox           |
|  \\    /   O peration     | Version:  2206                                  |
|   \\  /    A nd           | Website:  www.openfoam.com                      |
|    \\/     M anipulation  |                                                 |
\*---------------------------------------------------------------------------*/
FoamFile
{
    version     2.0;
    format      ascii;
    arch        "LSB;label=32;scalar=64";
    class       scalarField;
    location    "0/coarseMesh";
    object      snapshot0_stdmd13_p;
}
// * * * * * * * * * * * * * * * * * * * * * * * * * * * * * * * * * * * * * //


5264
(
7.881057811455626e-06
6.967187462342066e-06
6.072569956293177e-06
5.091445176850112e-06
3.889061219995232e-06
2.865626256868403e-06
1.552455233130159e-06
3.28872056061391e-07
-8.688045615354242e-07
-2.209448282418223e-06
-3.359904483579004e-06
-4.586425927332569e-06
-5.608473620867544e-06
-6.690331924229578e-06
-7.515236049360634e-06
-8.358883408245748e-06
-8.879807339267888e-06
-9.36867184017381e-06
-9.657641134819735e-06
-9.857146218016984e-06
-9.823273489194254e-06
-9.75653496807235e-06
-9.509701784353332e-06
-9.177680743651985e-06
-8.74005322805916e-06
-8.39190158750862e-06
-7.793580892109133e-06
-7.2428741484564e-06
-6.721181892346488e-06
-6.14500359165126e-06
-5.594035927945639e-06
-5.098185467752892e-06
-4.59712403757929e-06
-4.094838958443964e-06
-3.680823893356744e-06
-3.293162644479148e-06
-2.87657516922404e-06
-2.557325066103292e-06
-2.265547114827738e-06
-1.966039353670789e-06
-1.720627971313177e-06
-1.510287679871182e-06
-1.306208677512242e-06
-1.123798100291921e-06
-9.772611805714903e-07
-8.425164881323989e-07
-7.109857868216609e-07
-6.114525257133915e-07
-5.232378035148211e-07
-4.334627626703776e-07
-3.658485959949378e-07
-3.074881012925513e-07
-2.50910607279299e-07
-2.041237329419707e-07
-1.662631309185267e-07
-1.313499653292247e-07
-9.975773577573746e-08
-7.574803826872774e-08
-5.474057763309221e-08
-3.403789846853756e-08
-1.926751884411394e-08
-6.608807462825155e-09
5.518478033351469e-09
1.464207689659252e-08
2.194331873867427e-08
2.849238194226265e-08
3.376676434508169e-08
3.759733908672892e-08
4.074321752511014e-08
4.334885869551908e-08
4.497099337025086e-08
4.610536027204451e-08
4.687658969913953e-08
4.714091583115798e-08
4.708772596746168e-08
4.676023791030104e-08
4.619464435420708e-08
4.538167336919779e-08
4.452815984504247e-08
4.334879511191305e-08
4.225920080482893e-08
4.098127434600977e-08
3.96513802497637e-08
3.83812118242179e-08
3.685941872620651e-08
3.55765769075853e-08
3.408181353748077e-08
3.270742548468183e-08
3.134145209107883e-08
2.987241301962229e-08
8.228763278575059e-06
7.274443504623668e-06
6.333270632232975e-06
5.294220408115866e-06
4.011735686525481e-06
2.915094652111768e-06
1.497751284315866e-06
1.666473795813403e-07
-1.137416106671568e-06
-2.597492462522447e-06
-3.860834671162321e-06
-5.199271557068879e-06
-6.322483245597689e-06
-7.520889743387947e-06
-8.402177845199872e-06
-9.313471043007714e-06
-9.889767635661026e-06
-1.037390528601358e-05
-1.066267579228798e-05
-1.084492280432771e-05
-1.077352741165858e-05
-1.065285158021252e-05
-1.034019915374987e-05
-9.935346219648764e-06
-9.415844446511913e-06
-9.004210950570296e-06
-8.312040940375189e-06
-7.682255293214132e-06
-7.09001135873538e-06
-6.441855894469921e-06
-5.827759735278357e-06
-5.279664811701449e-06
-4.730125953474257e-06
-4.183698988033848e-06
-3.736821970355161e-06
-3.321259245555404e-06
-2.878111096990919e-06
-2.541079884208557e-06
-2.235025996477189e-06
-1.923091643970109e-06
-1.669311892524014e-06
-1.453207351250674e-06
-1.244918433133697e-06
-1.060018965031577e-06
-9.124719000812823e-07
-7.776476575785873e-07
-6.469501380253138e-07
-5.487434815632497e-07
-4.622491364392631e-07
-3.74868272187965e-07
-3.09559482070647e-07
-2.535839723450377e-07
-1.997491774514248e-07
-1.556133682265088e-07
-1.202090667399321e-07
-8.786204403045893e-08
-5.890417845569235e-08
-3.715264672772183e-08
-1.834205099169551e-08
-7.826958350917703e-11
1.272944900773989e-08
2.35193942976663e-08
3.362465971930776e-08
4.101902835565447e-08
4.675451936789224e-08
5.169390106083738e-08
5.545686234611693e-08
5.799389263561437e-08
5.987498320897289e-08
6.117505021901526e-08
6.173625032668491e-08
6.186489640392866e-08
6.155389705688809e-08
6.097650326965459e-08
6.000321930421516e-08
5.889557972860958e-08
5.758795987924007e-08
5.603160778437833e-08
5.457329200514521e-08
5.270947972608056e-08
5.108190272255716e-08
4.92492938167224e-08
4.740320357353858e-08
4.568532026876938e-08
4.367159272427256e-08
4.200496838894783e-08
4.009203643435426e-08
3.835605367098556e-08
3.664996895583347e-08
3.483323097018129e-08
8.622162912778977e-06
7.626966842536466e-06
6.637451139335441e-06
5.537020453653915e-06
4.168075986655623e-06
2.991160514492981e-06
1.458130194513747e-06
6.171575622381285e-09
-1.417641388786858e-06
-3.013538712304061e-06
-4.405269090369224e-06
-5.87204224543638e-06
-7.123042965440049e-06
-8.42870940292119e-06
-9.38944636741257e-06
-1.037720057400434e-05
-1.099692560260895e-05
-1.150823943840668e-05
-1.177814649900443e-05
-1.193719966807717e-05
-1.182165102947305e-05
-1.163531213969276e-05
-1.124485753807521e-05
-1.075472888154765e-05
-1.014150519233095e-05
-9.656848126405685e-06
-8.8573859401389e-06
-8.138171888305238e-06
-7.466829014712678e-06
-6.738831317166868e-06
-6.055541016051899e-06
-5.450876383523776e-06
-4.849511766562609e-06
-4.25658252055612e-06
-3.775637547939675e-06
-3.331606012840768e-06
-2.86190856500182e-06
-2.507534935671793e-06
-2.187908074567457e-06
-1.864579808278011e-06
-1.603507816206336e-06
-1.382722705620508e-06
-1.171417794797994e-06
-9.852144016171045e-07
-8.376908482328668e-07
-7.037999808041681e-07
-5.749840244230836e-07
-4.789377967685533e-07
-3.949310011090928e-07
-3.107548024890279e-07
-2.483826618588362e-07
-1.953518631490265e-07
-1.448172359046369e-07
-1.038057560558825e-07
-7.125010885061438e-08
-4.183971901236774e-08
-1.586020858968147e-08
3.36468151515005e-09
1.97374607161406e-08
3.531737113676659e-08
4.598148177128941e-08
5.474233487548787e-08
6.266536081257587e-08
6.820390810754555e-08
7.226695196311516e-08
7.549476026675636e-08
7.765765429964637e-08
7.883067646912548e-08
7.938274435512606e-08
7.931583753721717e-08
7.876993015532223e-08
7.785206301684809e-08
7.641820118439758e-08
7.49698769873053e-08
7.304696403161946e-08
7.113607502229196e-08
6.906617985120009e-08
6.674780089485218e-08
6.467077267037498e-08
6.210814769678626e-08
5.993233061136635e-08
5.753543090245175e-08
5.516507152727752e-08
5.299318274354606e-08
5.048136746890805e-08
4.84267280495172e-08
4.609158430554102e-08
4.399098522151189e-08
4.194236704267723e-08
3.977586575365703e-08
9.060320112602935e-06
8.025016896229138e-06
6.986491185945691e-06
5.822350120445191e-06
4.361769307348546e-06
3.098861228503967e-06
1.438384070460362e-06
-1.49680093884862e-07
-1.708595922199664e-06
-3.45909587164213e-06
-4.998208509022623e-06
-6.612422024884018e-06
-8.013730556208155e-06
-9.437476627048758e-06
-1.049231507452626e-05
-1.156697295703124e-05
-1.223154313826123e-05
-1.277945966732891e-05
-1.302014585938344e-05
-1.314935169855344e-05
-1.297995484761958e-05
-1.271446408802732e-05
-1.223183993027677e-05
-1.164166965452839e-05
-1.091489417711836e-05
-1.034163142161706e-05
-9.421286864838734e-06
-8.602467190559559e-06
-7.843827192357598e-06
-7.028701024761359e-06
-6.270862490607463e-06
-5.606050558056868e-06
-4.950344287563407e-06
-4.309439956711687e-06
-3.793975095753733e-06
-3.321616828580429e-06
-2.826131150932674e-06
-2.455407472795066e-06
-2.123392925777195e-06
-1.790164624224159e-06
-1.523221823613481e-06
-1.29910726647479e-06
-1.086209249931351e-06
-9.000616614482486e-07
-7.537114299378981e-07
-6.218522428414957e-07
-4.960262145744005e-07
-4.03001651320006e-07
-3.222598174109801e-07
-2.420927245881373e-07
-1.832712651966486e-07
-1.337202171133592e-07
-8.70088291536766e-08
-4.955740176619643e-08
-2.020517477696326e-08
5.939557054415541e-09
2.864112567990956e-08
4.511015368415825e-08
5.884315777935931e-08
7.153828459908558e-08
7.991376346354172e-08
8.651968215026261e-08
9.213780222324339e-08
9.572618892350635e-08
9.803935643225557e-08
9.94838135983348e-08
9.99862612209752e-08
9.974897296951074e-08
9.893136089101525e-08
9.746034936640951e-08
9.578081569585189e-08
9.379420892858628e-08
9.121674602035206e-08
8.888368543338688e-08
8.599837013583605e-08
8.327527756232607e-08
8.043624505563729e-08
7.735053795262977e-08
7.465168942645653e-08
7.138804836780733e-08
6.866324336737872e-08
6.570220043213678e-08
6.280853233693544e-08
6.018414366974107e-08
5.71766106778645e-08
5.473633991468556e-08
5.198211604409469e-08
4.952005388880189e-08
4.713226151229726e-08
4.461981627901519e-08
9.553358539900221e-06
8.47900870846577e-06
7.390804353389067e-06
6.160264600401366e-06
4.601876580153619e-06
3.245923174148621e-06
1.444494002008444e-06
-2.972114116391785e-07
-2.008737073265525e-06
-3.935902623215292e-06
-5.644967320858502e-06
-7.4293692742563e-06
-9.00487359580201e-06
-1.056581846290741e-05
-1.172923260221893e-05
-1.290317890373177e-05
-1.361781664717986e-05
-1.420546603523232e-05
-1.4407735958468e-05
-1.449870984777126e-05
-1.426352541144388e-05
-1.390197841784541e-05
-1.331087296838051e-05
-1.260259797790232e-05
-1.174360924823358e-05
-1.10675764250583e-05
-1.000947823569419e-05
-9.078517789726431e-06
-8.222544962297282e-06
-7.311430391586473e-06
-6.472583327138654e-06
-5.743342958699978e-06
-5.03030954799271e-06
-4.339699342786431e-06
-3.78919196181199e-06
-3.288678649865675e-06
-2.768290213132872e-06
-2.382359289591859e-06
-2.039312466953607e-06
-1.697880650806929e-06
-1.426671318433445e-06
-1.200744414773788e-06
-9.878433988989912e-07
-8.032644994524712e-07
-6.593621567341092e-07
-5.307484894101072e-07
-4.091340203552055e-07
-3.20078331822597e-07
-2.434553134165903e-07
-1.681800211434583e-07
-1.135827804215035e-07
-6.809853460981081e-08
-2.578483945696082e-08
7.627230393360532e-09
3.338491899150167e-08
5.590020254880104e-08
7.499130550979057e-08
8.844885881261907e-08
9.931574527886544e-08
1.088994120155169e-07
1.148213477660032e-07
1.191281105127915e-07
1.222993182874352e-07
1.238270411843582e-07
1.242985130051455e-07
1.23873251619465e-07
1.226413267805689e-07
1.209359252496183e-07
1.186967921632485e-07
1.15773045644193e-07
1.129240422997883e-07
1.098376351584967e-07
1.060863203386153e-07
1.028473068731665e-07
9.897869566610615e-08
9.542753926495477e-08
9.180591566573619e-08
8.794094917003983e-08
8.461175550387261e-08
8.063873634079175e-08
7.735933153680015e-08
7.382925402910788e-08
7.04085252378172e-08
6.732903486074591e-08
6.382361811367617e-08
6.099654284475035e-08
5.782247583598936e-08
5.499871951356502e-08
5.227191370925293e-08
4.941405862762103e-08
1.010777139089941e-05
8.996443584201111e-06
7.858668739188932e-06
6.559592171944629e-06
4.89739258115531e-06
3.44114147047564e-06
1.483923111816264e-06
-4.314656655239625e-07
-2.31583373144883e-06
-4.445198912410174e-06
-6.351537848550283e-06
-8.336613335362078e-06
-1.010773350689361e-05
-1.183313979704327e-05
-1.312251964960335e-05
-1.441036797252661e-05
-1.518097397818181e-05
-1.580549917168989e-05
-1.596891244243129e-05
-1.600571889418393e-05
-1.568957211887071e-05
-1.52116407168244e-05
-1.449270716555735e-05
-1.364461051144955e-05
-1.26314099754213e-05
-1.183603634673991e-05
-1.062086072963684e-05
-9.563671641012756e-06
-8.59927464927526e-06
-7.582601473432988e-06
-6.655994410632751e-06
-5.85805626695604e-06
-5.084933629620086e-06
-4.343281397522801e-06
-3.757636236941802e-06
-3.229598588286752e-06
-2.685730218987038e-06
-2.286162916931843e-06
-1.933832099923999e-06
-1.586288950061409e-06
-1.312729157355321e-06
-1.086760894673773e-06
-8.75677516730676e-07
-6.943699792043468e-07
-5.543290628940972e-07
-4.302905628199217e-07
-3.142093868423413e-07
-2.301357560186003e-07
-1.585364362808062e-07
-8.907914058395877e-08
-3.940617536704358e-08
1.405942447600596e-09
3.873446831447982e-08
6.762097652618437e-08
8.939032648804538e-08
1.079124789800275e-07
1.230631495712195e-07
1.332574108950771e-07
1.410366277644086e-07
1.472885576136746e-07
1.505978667362447e-07
1.524672304898457e-07
1.530563909950534e-07
1.52419084425542e-07
1.509627564713946e-07
1.48587402380167e-07
1.455528806293164e-07
1.423264764386851e-07
1.386187955045497e-07
1.341986447960632e-07
1.301483397839969e-07
1.259348475817479e-07
1.209834534430115e-07
1.168203627337761e-07
1.119508973461515e-07
1.075586039349559e-07
1.031435464167373e-07
9.848996339672556e-08
9.452395938878606e-08
8.983549000340474e-08
8.599764070735773e-08
8.189542687792983e-08
7.79455201951695e-08
7.440971789317427e-08
7.040575107431519e-08
6.719184534368251e-08
6.359839848518918e-08
6.041375693471353e-08
5.734905820491567e-08
5.414728993499737e-08
1.073064061946494e-05
9.585685045965064e-06
8.399493423145586e-06
7.03056563984571e-06
5.258989629528845e-06
3.695171237122651e-06
1.56598553233009e-06
-5.458525277130266e-07
-2.62673496059555e-06
-4.988449463673486e-06
-7.124697848251019e-06
-9.353248807805942e-06
-1.133688486470931e-05
-1.32629803288975e-05
-1.469928686305045e-05
-1.611837689974172e-05
-1.695165586118763e-05
-1.760184424065046e-05
-1.774231356477555e-05
-1.769467745997052e-05
-1.727877530789645e-05
-1.665995504485264e-05
-1.578884597504284e-05
-1.477559084052836e-05
-1.358214772690759e-05
-1.264801611072602e-05
-1.125363023025925e-05
-1.005441389899472e-05
-8.969382591256156e-06
-7.836880715549234e-06
-6.815547397660573e-06
-5.944764894815086e-06
-5.109149154339446e-06
-4.315657523583239e-06
-3.69532497977666e-06
-3.140957917430414e-06
-2.57567142166415e-06
-2.164533643876521e-06
-1.805111824798108e-06
-1.453987461264229e-06
-1.180330923875548e-06
-9.563618078871197e-07
-7.491564378433333e-07
-5.730159350196257e-07
-4.383880453398437e-07
-3.203666970352249e-07
-2.112348084608206e-07
-1.332163743630803e-07
-6.759028339858605e-08
-4.913151414047994e-09
3.911529356088853e-08
7.463756801256668e-08
1.063864985630683e-07
1.302596279561322e-07
1.476486064456551e-07
1.618182904914117e-07
1.72705069894604e-07
1.793911005647839e-07
1.838686456057363e-07
1.86577750661643e-07
1.871232218960274e-07
1.864247192596088e-07
1.843053472282145e-07
1.814061729358936e-07
1.779428158410367e-07
1.735440836936834e-07
1.686453849536798e-07
1.638507438948273e-07
1.586329724362308e-07
1.526783438217422e-07
1.473993892080443e-07
1.420357174425261e-07
1.358624497192847e-07
1.30760542938381e-07
1.248762960389982e-07
1.196328094230915e-07
1.144162866025762e-07
1.089674887075514e-07
1.043604074025148e-07
9.895285011125246e-08
9.4554583195731e-08
8.987901992970435e-08
8.53995375769905e-08
8.14076721188042e-08
7.690605636116032e-08
7.330648963897938e-08
6.929540056507598e-08
6.575176064465607e-08
6.235128166470831e-08
5.880808946366563e-08
1.142962007623747e-05
1.025599485054696e-05
9.023915941677632e-06
7.584998822801499e-06
5.699306843901371e-06
4.020916602276419e-06
1.702321926456389e-06
-6.31883932388427e-07
-2.936782025964407e-06
-5.566746027907957e-06
-7.972169277650547e-06
-1.048799165506275e-05
-1.272129374132153e-05
-1.4884170791234e-05
-1.649276023325698e-05
-1.80637397586103e-05
-1.896725369067254e-05
-1.964144696590943e-05
-1.975189265809084e-05
-1.959488588802966e-05
-1.905567049336878e-05
-1.826533289880327e-05
-1.721258229823234e-05
-1.600420687131697e-05
-1.459976401394081e-05
-1.350407065814001e-05
-1.190510200804291e-05
-1.054617823533617e-05
-9.327133279978361e-06
-8.067872481906547e-06
-6.944745354580756e-06
-5.997241682106061e-06
-5.097256200437221e-06
-4.251840751924561e-06
-3.597955488684529e-06
-3.019137835291677e-06
-2.435245531727202e-06
-2.01516882921189e-06
-1.651346194860727e-06
-1.299649072258499e-06
-1.028509809212129e-06
-8.088617913775141e-07
-6.078394617678211e-07
-4.389536469448862e-07
-3.114239584748459e-07
-2.009672655593852e-07
-1.002858434100122e-07
-2.944730176801459e-08
2.921980076622814e-08
8.412811260130999e-08
1.217793048448143e-07
1.513886155068992e-07
1.769636280708873e-07
1.953399704650525e-07
2.079633014343507e-07
2.174302118610571e-07
2.23740460749605e-07
2.266835256513028e-07
2.276558925514901e-07
2.266232212411192e-07
2.242636549230005e-07
2.208764601526944e-07
2.159325512577423e-07
2.106836182948407e-07
2.051420534297225e-07
1.986548498597754e-07
1.91837981179819e-07
1.854342611963862e-07
1.786710025351268e-07
1.711500411972145e-07
1.646200354841357e-07
1.580876823175874e-07
1.506755733374689e-07
1.446237760317391e-07
1.377147321278952e-07
1.3161323257952e-07
1.255902156018137e-07
1.193425371750517e-07
1.140924386546782e-07
1.079647234789584e-07
1.030060332079102e-07
9.775788658104078e-08
9.275022716038189e-08
8.8304067186952e-08
8.330733186188714e-08
7.93245119900876e-08
7.489883512341852e-08
7.099919480979622e-08
6.726606864023168e-08
6.338496020583124e-08
1.221288551792293e-05
1.101754516681211e-05
9.743884807622957e-06
8.23644902231526e-06
6.233235087423781e-06
4.43396088102022e-06
1.907503572074465e-06
-6.78373129142044e-07
-3.239286722398178e-06
-6.180263889684476e-06
-8.902664097250348e-06
-1.175652741758448e-05
-1.428908986688014e-05
-1.67327209597831e-05
-1.854423102167455e-05
-2.029160339995682e-05
-2.127368302291407e-05
-2.19692508986861e-05
-2.20362055191253e-05
-2.174189670668535e-05
-2.105012438260395e-05
-2.004993925009645e-05
-1.877869460153995e-05
-1.733951035209719e-05
-1.568819330383208e-05
-1.440419448404711e-05
-1.25715379022791e-05
-1.10331473004791e-05
-9.665489439575672e-06
-8.267950832891704e-06
-7.036026732663931e-06
-6.008390013249444e-06
-5.04289507345726e-06
-4.146391691298145e-06
-3.46093270024504e-06
-2.860361118285587e-06
-2.261545709164098e-06
-1.835799617031811e-06
-1.470814585630638e-06
-1.122067697407018e-06
-8.564376144029777e-07
-6.437207771246047e-07
-4.514304699611058e-07
-2.920726357824337e-07
-1.734510751720612e-07
-7.220131525501777e-08
1.845606426507511e-08
8.09495256529785e-08
1.316462897692912e-07
1.77782202608556e-07
2.083200531735199e-07
2.313959871588136e-07
2.50210898118787e-07
2.626181981573286e-07
2.701028689761695e-07
2.745308391655502e-07
2.759673767544872e-07
2.749464812917684e-07
2.722237642175715e-07
2.672655761187824e-07
2.618719944658591e-07
2.556868361718642e-07
2.478147286761839e-07
2.401385258751139e-07
2.324568037821424e-07
2.238253247265923e-07
2.150448107223008e-07
2.069982841411448e-07
1.986609320614262e-07
1.895486050986226e-07
1.817505393216974e-07
1.740359846467049e-07
1.653732704625452e-07
1.583644328487604e-07
1.504247442128532e-07
1.43461848165142e-07
1.366304877494431e-07
1.295833588733825e-07
1.236907501207936e-07
1.168444966299534e-07
1.113274309621083e-07
1.055095270182571e-07
9.997695361182616e-08
9.507984109606965e-08
8.959219677078838e-08
8.522980704447274e-08
8.039394981499211e-08
7.614244614561314e-08
7.208084973093259e-08
6.786637257227655e-08
1.308903326689333e-05
1.188138942218801e-05
1.057272910446379e-05
9.000383169444235e-06
6.8781547038941e-06
4.952949137340306e-06
2.199652401537072e-06
-6.705762986913002e-07
-3.524732680628982e-06
-6.827559630654928e-06
-9.925378543480669e-06
-1.318233197455217e-05
-1.607388823347522e-05
-1.885384799286364e-05
-2.090558663496547e-05
-2.285824322612953e-05
-2.392781482784132e-05
-2.463903396445383e-05
-2.464642342102938e-05
-2.417716507003098e-05
-2.329823950199054e-05
-2.20421376642911e-05
-2.050576750261196e-05
-1.879082533841551e-05
-1.685095206458392e-05
-1.534755427474676e-05
-1.324794884344035e-05
-1.150806111427693e-05
-9.9759101396703e-06
-8.428079408651631e-06
-7.08064534537442e-06
-5.970183561953968e-06
-4.939035476532547e-06
-3.99344560659639e-06
-3.279418374824271e-06
-2.660754173222576e-06
-2.05169407531934e-06
-1.62425730973125e-06
-1.261943247360306e-06
-9.202131723155508e-07
-6.634722683229439e-07
-4.605844600764413e-07
-2.798111887422107e-07
-1.324274209529963e-07
-2.46347179826531e-08
6.568635407190994e-08
1.446906827983427e-07
1.97647367787021e-07
2.39349878718461e-07
2.757086477095623e-07
2.984043101234342e-07
3.143384070149505e-07
3.258241707564379e-07
3.318087587949243e-07
3.338000074069582e-07
3.328724938689631e-07
3.291585209970411e-07
3.239701231398845e-07
3.173792450548312e-07
3.083301774615654e-07
2.997880795481651e-07
2.907091765280553e-07
2.798194186844922e-07
2.696502395334142e-07
2.597768046096345e-07
2.489556131995808e-07
2.381754032687506e-07
2.284601553427132e-07
2.185275125715724e-07
2.078061816853935e-07
1.987288581985366e-07
1.898239320860091e-07
1.799044186092162e-07
1.71935567878499e-07
1.629637906256809e-07
1.551397230492507e-07
1.475014986615478e-07
1.396575860675835e-07
1.331255281067346e-07
1.255651553524048e-07
1.194938929827557e-07
1.131111886635471e-07
1.070588876215858e-07
1.017157832747256e-07
9.574316605734611e-08
9.100619588732639e-08
8.576594821386027e-08
8.116787946166034e-08
7.678305181117552e-08
7.224080960972108e-08
1.406691551676861e-05
1.285936207756715e-05
1.152520571955436e-05
9.894458929148163e-06
7.654316030912953e-06
5.599965175901768e-06
2.600799622910761e-06
-5.898090027587917e-07
-3.780870340241269e-06
-7.50549185207608e-06
-1.104966688178992e-05
-1.479064663907614e-05
-1.811589453162459e-05
-2.130362595565066e-05
-2.364370007402291e-05
-2.58352863023651e-05
-2.700117690309125e-05
-2.771741264808477e-05
-2.76412071170404e-05
-2.694490923656889e-05
-2.583728728632312e-05
-2.427426090167493e-05
-2.242012401900142e-05
-2.037061358442733e-05
-1.809090343483451e-05
-1.63319416269124e-05
-1.392772905491496e-05
-1.196196954699471e-05
-1.024813585522482e-05
-8.537642014462103e-06
-7.068570869902672e-06
-5.873626777584059e-06
-4.777988661691143e-06
-3.786766354684753e-06
-3.048407103906212e-06
-2.416433128880591e-06
-1.802928759510719e-06
-1.378555298577473e-06
-1.023379192950727e-06
-6.9329436546828e-07
-4.492108930334537e-07
-2.593282988787612e-07
-9.307635536946841e-08
3.973501900631265e-08
1.346871945098471e-07
2.122987308618781e-07
2.779870659978923e-07
3.202058336606517e-07
3.518930914724368e-07
3.774847449656082e-07
3.916286282365456e-07
3.998346806307638e-07
4.034492510961752e-07
4.025840634894801e-07
3.987517520877883e-07
3.921776020197162e-07
3.830618154418663e-07
3.735236376092752e-07
3.629116325888965e-07
3.496278864731093e-07
3.378394950554723e-07
3.257864697420799e-07
3.118056478974962e-07
2.990909702601121e-07
2.869857776303341e-07
2.739408303109398e-07
2.611351575060459e-07
2.497337436534498e-07
2.381926001177559e-07
2.258525515363711e-07
2.154909584054568e-07
2.053931567332625e-07
1.942165452372831e-07
1.852891349236179e-07
1.752884755404232e-07
1.666072421906533e-07
1.581670931353013e-07
1.495324113253207e-07
1.423666020312486e-07
1.340994163761323e-07
1.27480330030464e-07
1.20539971964374e-07
1.139751014006469e-07
1.08192621532646e-07
1.017427282594687e-07
9.663749696855629e-08
9.100005371961327e-08
8.606189567697386e-08
8.136015033755619e-08
7.649681356026319e-08
1.515545074458816e-05
1.396393131562113e-05
1.261748661856821e-05
1.093900177443322e-05
8.586067316234979e-06
6.401727320514754e-06
3.137742767072917e-06
-4.130611866003584e-07
-3.994394300421482e-06
-8.212416556025383e-06
-1.229416877179346e-05
-1.66055797786549e-05
-2.04500269653642e-05
-2.412099325364497e-05
-2.681853781263853e-05
-2.93097991184796e-05
-3.058437028582069e-05
-3.129263400151879e-05
-3.10922992081207e-05
-3.010149472088118e-05
-2.869813308034913e-05
-2.676673815687384e-05
-2.454876163319138e-05
-2.209965804540773e-05
-1.941228485096147e-05
-1.735356798267881e-05
-1.460210741142294e-05
-1.238380253342107e-05
-1.04698454073507e-05
-8.584239714804277e-06
-6.988412744824335e-06
-5.708749206392499e-06
-4.55145288130637e-06
-3.519832905508443e-06
-2.762831748910397e-06
-2.123614073865739e-06
-1.51270811027218e-06
-1.096982689464584e-06
-7.540711809695766e-07
-4.408253240835873e-07
-2.135431425863818e-07
-4.00999118536693e-08
1.084341591266419e-07
2.239517515709571e-07
3.039869853464746e-07
3.670746682846533e-07
4.177760893527432e-07
4.480662934480105e-07
4.68737867173647e-07
4.826049490953266e-07
4.875197997530874e-07
4.874448752551058e-07
4.826835755470303e-07
4.745764482915539e-07
4.646215561129027e-07
4.521408010229816e-07
4.374024584498784e-07
4.233572118348041e-07
4.08594393137473e-07
3.909567656135915e-07
3.758431371396094e-07
3.607527942675578e-07
3.436252141830818e-07
3.283269534480317e-07
3.139624676220639e-07
2.986720151016838e-07
2.838261396177522e-07
2.707301499860645e-07
2.575757791027344e-07
2.436156860479679e-07
2.319713197030752e-07
2.206840260333751e-07
2.082560823081093e-07
1.983761490257186e-07
1.873546788089925e-07
1.778242556457804e-07
1.685907371679501e-07
1.591747683887918e-07
1.513836164505781e-07
1.42419879558823e-07
1.35261581691698e-07
1.277729478425141e-07
1.207046719071769e-07
1.144911143641748e-07
1.075734268977222e-07
1.021075996714308e-07
9.608157537199395e-08
9.081099171472865e-08
8.579972375109539e-08
8.062303409378069e-08
1.636345224023785e-05
1.52081092941691e-05
1.386701538831577e-05
1.215701410455276e-05
9.703738922193259e-06
7.39266120249448e-06
3.847743866372114e-06
-1.047505727294e-07
-4.138493245860287e-06
-8.92709689805325e-06
-1.364375256145045e-05
-1.864532279353205e-05
-2.302016482384793e-05
-2.730397388072841e-05
-3.063398094923669e-05
-3.349081949170991e-05
-3.465802419994061e-05
-3.539482721075061e-05
-3.505420821833723e-05
-3.376116087022792e-05
-3.193559623479779e-05
-2.952212787564202e-05
-2.688749800115772e-05
-2.399708722451462e-05
-2.082484673247653e-05
-1.840863571007798e-05
-1.526010811331491e-05
-1.275993279721135e-05
-1.062621975573999e-05
-8.553467973990311e-06
-6.827379114797283e-06
-5.464658070436035e-06
-4.250623190663839e-06
-3.18598105912097e-06
-2.417712121548317e-06
-1.778756212880108e-06
-1.178837621045643e-06
-7.782138168238369e-07
-4.533617360236876e-07
-1.626990522482178e-07
4.328953945914002e-08
1.966336044683675e-07
3.240989292722486e-07
4.195164103482166e-07
4.825262243230147e-07
5.292732163691296e-07
5.633392976831625e-07
5.805436451074819e-07
5.89239559579875e-07
5.904767777458767e-07
5.855319547105976e-07
5.766682896656265e-07
5.630748874813958e-07
5.473773358450439e-07
5.310387841570067e-07
5.124286948988109e-07
4.918828821112731e-07
4.732021261404049e-07
4.541853630736768e-07
4.321023773880112e-07
4.136055739776086e-07
3.954337287415707e-07
3.751231467772674e-07
3.572189545711382e-07
3.405811909291859e-07
3.230367155555162e-07
3.061476889225531e-07
2.913583214436269e-07
2.765949826013793e-07
2.610224034212979e-07
2.481036813376812e-07
2.356364932166975e-07
2.219691157902897e-07
2.11147199887256e-07
1.991178240329376e-07
1.887502207572321e-07
1.787356172252936e-07
1.68551434568919e-07
1.601461472031201e-07
1.504991535319087e-07
1.428125416530625e-07
1.347872761483414e-07
1.27226789129275e-07
1.205921490192916e-07
1.132179470815285e-07
1.074005421023074e-07
1.009959765756573e-07
9.540182241551062e-08
9.008950995104075e-08
8.460827911478463e-08
1.769894816900954e-05
1.660473859509868e-05
1.529140755171569e-05
1.357105651204734e-05
1.103956226046459e-05
8.61370741598118e-06
4.790648992626799e-06
4.134636596832996e-07
-4.135032282608299e-06
-9.670754520276523e-06
-1.488881969046495e-05
-2.106445792312588e-05
-2.611865561785703e-05
-3.177253285095361e-05
-3.557690524697179e-05
-3.880670503402968e-05
-4.019483764743002e-05
-4.036026645021271e-05
-3.985605621472281e-05
-3.814937027161465e-05
-3.569937041115939e-05
-3.262609408259302e-05
-2.940361504385347e-05
-2.60361409601228e-05
-2.233659492354577e-05
-1.949533333180324e-05
-1.588960975024544e-05
-1.307380970836521e-05
-1.069936102442919e-05
-8.428562052305781e-06
-6.571116852908845e-06
-5.129559907058258e-06
-3.866390384874361e-06
-2.778712864416447e-06
-2.008502619610716e-06
-1.378919153021226e-06
-7.998135125369374e-07
-4.216263943002834e-07
-1.212744171149547e-07
1.405621001540514e-07
3.204759491460466e-07
4.498958103844278e-07
5.528518923521675e-07
6.25339324147115e-07
6.69233886013473e-07
6.978678587309272e-07
7.137183791846688e-07
7.167470419650192e-07
7.125774812365097e-07
7.003612276486711e-07
6.849943687919639e-07
6.668976418106602e-07
6.440816402488859e-07
6.205028286571937e-07
5.975685634244911e-07
5.726537008072762e-07
5.461602954157422e-07
5.227511799774308e-07
4.994097688959112e-07
4.728234585157379e-07
4.509106924969509e-07
4.296357518822311e-07
4.06128863725611e-07
3.856148267133195e-07
3.667055930525028e-07
3.469139167859326e-07
3.279923751233273e-07
3.115218178384315e-07
2.951639677737152e-07
2.779965051294447e-07
2.638197839535349e-07
2.501897300663332e-07
2.353019906488738e-07
2.235533398154459e-07
2.105336671428794e-07
1.993447815966989e-07
1.885650248932219e-07
1.776292713022963e-07
1.686238706563031e-07
1.583099828478245e-07
1.501082703370558e-07
1.415603112784624e-07
1.335208567232345e-07
1.264768368471966e-07
1.186592034815676e-07
1.125005921104294e-07
1.057289473807446e-07
9.982126521984718e-08
9.421746515394907e-08
8.84415684822977e-08
1.91659043653335e-05
1.816184741512592e-05
1.690289034927485e-05
1.519381802694005e-05
1.260539114455899e-05
1.008284947716758e-05
6.025960434172326e-06
1.169519034671831e-06
-3.878643019063628e-06
-1.008725918143919e-05
-1.686932319787871e-05
-2.350590967690119e-05
-3.050390740787763e-05
-3.640489713851586e-05
-4.085535999190894e-05
-4.449019345914337e-05
-4.628646317459575e-05
-4.655098584781196e-05
-4.519774407777717e-05
-4.316887828651021e-05
-4.013899291686357e-05
-3.638058590570307e-05
-3.224060041827619e-05
-2.814811284119073e-05
-2.39163376304813e-05
-2.061011431261349e-05
-1.647995029916827e-05
-1.330804672831031e-05
-1.0670934186559e-05
-8.19331121093464e-06
-6.206028388801955e-06
-4.692382317156773e-06
-3.390428425960752e-06
-2.292390952551429e-06
-1.531548035373288e-06
-9.220685910008681e-07
-3.750449016371698e-07
-2.750056589737845e-08
2.412941641569859e-07
4.676224237573539e-07
6.164657323884602e-07
7.180514514394527e-07
7.930577375748622e-07
8.398479431270936e-07