/*--------------------------------*- C++ -*----------------------------------*\
| =========                 |                                                 |
| \\      /  F ield         | OpenFOAM: The Open Source CFD Toolbox           |
|  \\    /   O peration     | Version:  2206                                  |
|   \\  /    A nd           | Website:  www.openfoam.com                      |
|    \\/     M anipulation  |                                                 |
\*---------------------------------------------------------------------------*/
FoamFile
{
    version     2.0;
    format      ascii;
    arch        "LSB;label=32;scalar=64";
    class       scalarField;
    location    "0";
    object      snapshot0_stdmd58_yPlus;
}
// * * * * * * * * * * * * * * * * * * * * * * * * * * * * * * * * * * * * * //


120
(
0.2936402391854826
0.2592845624246242
0.2153313063875973
0.1527455165134496
0.07502787191881169
0.1802379954718565
0.2539553405420276
0.3159094226067979
0.371766131538341
0.4236329125490303
0.4724299188690858
0.5185625144796452
0.5621801692012093
0.6032967999161905
0.6418547406690568
0.1533157416541055
0.2414305535932164
0.3037081115333436
0.3492285996249917
0.3820755222074192
0.4043500136325485
0.4174830564117979
0.4226943843475653
0.4211218881481762
0.4138841923200592
0.4020518890465004
0.3865293203503415
0.3679513361140519
0.346564606554772
0.3221041182451864
0.1960806076339146
0.3140426858565109
0.4015397461685871
0.4724940602245804
0.5328275893673665
0.5853879759855841
0.6317592175309769
0.6729082435922631
0.7094622908897745
0.7418448692770331
0.7703492230685218
0.7951810274201347
0.8164846428560261
0.8343598655871242
0.8488727605861982
0.8600613857018553
0.8679417415145344
0.8725280320959977
0.8740046462474577
0.8721055920237808
0.8668332388199326
0.8583543025238758
0.8467129705600334
0.8318975013616202
0.8139064672844045
0.7927603678452214
0.7685007380513867
0.741190141347623
0.710910749303391
0.6777620492677695
0.2936408672927881
0.2592854115280666
0.215332529725248
0.1527475336017908
0.07502503596723727
0.1802356658716466
0.2539534786314244
0.315907781035002
0.3717646320620956
0.4236315226441225
0.4724286227023299
0.5185613032044577
0.5621790369339446
0.6032957418635894
0.6418537530745253
0.1533065138270287
0.2414237957233011
0.3037030827365942
0.3492248076273282
0.3820727076551081
0.404347989889478
0.417481681643641
0.4226935300606179
0.4211214384755386
0.4138840448677469
0.4020519547759617
0.386529530635287
0.3679516457670947
0.3465649985179747
0.3221046061847214
0.1960796081309992
0.3140419485930629
0.4015391442908392
0.4724935309448743
0.5328271057796041
0.5853875247907205
0.6317587898919991
0.6729078333360478
0.7094618932915944
0.7418444804437699
0.7703488395584464
0.795180646067786
0.8164842606178605
0.8343594794337822
0.8488723675728309
0.8600609825156017
0.86794132524076
0.8725275999488333
0.8740041946590722
0.8721051162291713
0.8668327362320507
0.8583537706127157
0.8467124054963158
0.8318968985371418
0.8139058220075031
0.7927596756329067
0.7684999946601899
0.7411893426863296
0.7109098913495593
0.677761128385359
)


// ************************************************************************* //
