/*--------------------------------*- C++ -*----------------------------------*\
| =========                 |                                                 |
| \\      /  F ield         | OpenFOAM: The Open Source CFD Toolbox           |
|  \\    /   O peration     | Version:  2206                                  |
|   \\  /    A nd           | Website:  www.openfoam.com                      |
|    \\/     M anipulation  |                                                 |
\*---------------------------------------------------------------------------*/
FoamFile
{
    version     2.0;
    format      ascii;
    arch        "LSB;label=32;scalar=64";
    class       scalarField;
    location    "0";
    object      snapshot0_stdmd43_pMean;
}
// * * * * * * * * * * * * * * * * * * * * * * * * * * * * * * * * * * * * * //


34764
(
-9.434482519013843e-05
-9.290244302756715e-05
-9.16630526422845e-05
-9.096770743457243e-05
-9.042266800082865e-05
-8.9219307342766e-05
-8.657426929167064e-05
-8.213968653005005e-05
-7.612228695229785e-05
-6.910217981372807e-05
-6.173755236015426e-05
-5.455802633331298e-05
-4.788188233392895e-05
-4.187490489747198e-05
-3.64451129660498e-05
-3.192414710278429e-05
-9.814346934940426e-05
-9.658084864392239e-05
-9.520604589910286e-05
-9.430982003657747e-05
-9.341394202258825e-05
-9.169531689440898e-05
-8.846177539446403e-05
-8.351291028906438e-05
-7.717062861296028e-05
-7.004107483843928e-05
-6.273402391384441e-05
-5.570201153688538e-05
-4.919987020062047e-05
-4.335049482952536e-05
-3.811275548985096e-05
-3.384642632987064e-05
-0.0001021364961906725
-0.0001004595897231246
-9.894460063700715e-05
-9.780753932559065e-05
-9.647333684978031e-05
-9.413049830487938e-05
-9.0220027875832e-05
-8.471085430789142e-05
-7.803061216662885e-05
-7.078980514989526e-05
-6.353526207903298e-05
-5.664015384155039e-05
-5.029895171648555e-05
-4.45995345507222e-05
-3.950350774691512e-05
-3.525721742601844e-05
-0.0001063286263881168
-0.0001045399845699623
-0.0001028680273273473
-0.0001014331898276195
-9.956334013231959e-05
-9.649561554130253e-05
-9.184276070244524e-05
-8.575116014791653e-05
-7.873358684842177e-05
-7.138210360571818e-05
-6.417048073661369e-05
-5.739400293889887e-05
-5.119233037948642e-05
-4.561814735497737e-05
-4.062300197320198e-05
-3.639653128795348e-05
-0.0001107002971088625
-0.0001087996241280674
-0.0001069417251910825
-0.0001051358974304304
-0.0001026274952557425
-9.87479253018445e-05
-9.331201071156817e-05
-8.663693383583871e-05
-7.929287600445012e-05
-7.183265130712377e-05
-6.465162386515738e-05
-5.79719225739595e-05
-5.188414897981754e-05
-4.640927560876598e-05
-4.149304628391875e-05
-3.728308557618636e-05
-0.0001152090535929439
-0.0001131942176133212
-0.0001111100583932362
-0.0001088462032596837
-0.0001055965921094474
-0.0001008363719330778
-9.460124965134441e-05
-8.735892016675909e-05
-7.970639303274821e-05
-7.214047729818743e-05
-6.497726665025598e-05
-5.837261656455467e-05
-5.237494226121498e-05
-4.697917016813792e-05
-4.212866466658416e-05
-3.793694860617897e-05
-0.0001197925563085826
-0.0001176598141527132
-0.0001152987373685968
-0.0001124800638838113
-0.0001083935243524712
-0.0001027054986336126
-9.567772286181664e-05
-8.789778317067896e-05
-7.995975729134236e-05
-7.229266578562915e-05
-6.513604936733137e-05
-5.858754437942267e-05
-5.266017220693715e-05
-4.732802931551207e-05
-4.253401772969851e-05
-3.83602438832287e-05
-0.0001243709163652531
-0.0001221146213530621
-0.0001194171840220653
-0.0001159426049246547
-0.0001109369821459792
-0.0001042981643940609
-9.650426663407643e-05
-8.822643037970977e-05
-8.002949878367557e-05
-7.226788821051193e-05
-6.510985653383301e-05
-5.860308540723145e-05
-5.273136513689552e-05
-4.745233887108587e-05
-4.27089399367827e-05
-3.855334546674207e-05
-0.0001288484275257842
-0.0001264608314598662
-0.0001233611411720718
-0.0001191321296442107
-0.0001131444587683239
-0.0001055571047251685
-9.704074289024264e-05
-8.831223210203422e-05
-7.988598176224706e-05
-7.203940475218463e-05
-6.487632066904016e-05
-5.840221600020938e-05
-5.257695044471456e-05
-4.734517231492547e-05
-4.264960902409643e-05
-3.85138226647713e-05
-0.0001331159937156579
-0.0001305869438120147
-0.0001270157736947443
-0.000121943761618176
-0.0001149352683151732
-0.0001064262262636913
-9.724531399060952e-05
-8.811903801122034e-05
-7.949589411155042e-05
-7.15775025780954e-05
-6.441080481345808e-05
-5.79660506938498e-05
-5.218360404781937e-05
-4.699789937755829e-05
-4.235073388694752e-05
-3.823832171960643e-05
-0.000137053930898437
-0.0001343708163607151
-0.0001302596753479018
-0.0001242732105769443
-0.0001162328287876173
-0.0001068516978844903
-9.707566427925258e-05
-8.76089596987949e-05
-7.882426445361855e-05
-7.085137662692872e-05
-6.368791772047968e-05
-5.727501860936293e-05
-5.153719787769141e-05
-4.640087740279974e-05
-4.180580897193035e-05
-3.772258048485943e-05
-0.0001405353765836098
-0.0001376835693212381
-0.0001329699056971548
-0.0001260200350526639
-0.0001169661453515745
-0.0001067828325349681
-9.649018805772657e-05
-8.674396843258058e-05
-7.783616394148664e-05
-6.983057726612685e-05
-6.268271176062577e-05
-5.63098538090459e-05
-5.06236845054254e-05
-4.554430528663877e-05
-4.100803330119783e-05
-3.696220797206659e-05
-0.0001434302930309777
-0.0001403941119618071
-0.0001350266689140786
-0.0001270910547999406
-0.0001170711225120287
-0.0001061729432213558
-9.54492010163623e-05
-8.548737431761307e-05
-7.649819321151018e-05
-6.848626014708182e-05
-6.137168691024015e-05
-5.505238039195664e-05
-4.942970399352678e-05
-4.44187994128113e-05
-3.995097768565317e-05
-3.595323660550961e-05
-0.0001456099572335898
-0.0001423742075183277
-0.0001363173303091836
-0.0001274034453322137
-0.000116491821867572
-0.0001049803060929165
-9.391622543970534e-05
-8.380526622420056e-05
-7.477977563688226e-05
-6.679228680398333e-05
-5.9733708372048e-05
-5.34862347140998e-05
-4.794306440436507e-05
-4.301581184633686e-05
-3.862916936876616e-05
-3.469282987588158e-05
-0.0001469516313100087
-0.0001435036259826857
-0.0001367404405725924
-0.0001268867913651804
-0.0001151816215116184
-0.0001031692900249958
-9.185932839587956e-05
-8.166787680415095e-05
-7.26542303720932e-05
-6.472607277363501e-05
-5.775069045338624e-05
-5.159754001567098e-05
-4.615345796724847e-05
-4.132786663081012e-05
-3.703735334144067e-05
-3.317816514280158e-05
-4.191946986534576e-05
-4.297269309895813e-05
-4.350409337620058e-05
-4.320291696388556e-05
-4.192210956454079e-05
-3.937422838474346e-05
-3.540586662286091e-05
-3.010209037665125e-05
-2.377836206487755e-05
-1.691221839480025e-05
-1.001552002687466e-05
-3.636309330053718e-06
1.878589077409523e-06
6.316995641151275e-06
9.606870014257649e-06
1.187038502065568e-05
-4.301212389357256e-05
-4.402493583915266e-05
-4.455083522981505e-05
-4.429194796819588e-05
-4.308877933878784e-05
-4.063855487516234e-05
-3.676933252562832e-05
-3.154703969853101e-05
-2.527323268100311e-05
-1.841777205503297e-05
-1.147115960726219e-05
-5.035319362861347e-06
5.631477956145282e-07
5.100106676966577e-06
8.489439957162733e-06
1.087118102118971e-05
-4.511604739416379e-05
-4.604894080228627e-05
-4.656139632895852e-05
-4.638102897616504e-05
-4.532512133473246e-05
-4.306166455087236e-05
-3.938261802036013e-05
-3.431631759040001e-05
-2.813441698627301e-05
-2.127231522177138e-05
-1.429119244419663e-05
-7.725494118155678e-06
-1.962612847921935e-06
2.763475783994851e-06
6.342929194100401e-06
8.948096458577977e-06
-4.808023694438681e-05
-4.889560624374692e-05
-4.938209224503731e-05
-4.930487533254276e-05
-4.84504253452819e-05
-4.644631189149899e-05
-4.303465243889697e-05
-3.818948012785334e-05
-3.214126369266563e-05
-2.526493492387694e-05
-1.821920069369629e-05
-1.148611854070641e-05
-5.498716831571461e-06
-5.126285357567542e-07
3.329457619487446e-06
6.239372423794112e-06
-5.170513263924177e-05
-5.23684741730161e-05
-5.281044983506599e-05
-5.284506224776045e-05
-5.222496017862893e-05
-5.052955228432507e-05
-4.744415474965298e-05
-4.285903095318583e-05
-3.69373547468342e-05
-3.012232182364296e-05
-2.296920284172415e-05
-1.603454290856797e-05
-9.782925186950523e-06
-4.491912720633725e-06
-3.399234965942463e-07
2.925313836345132e-06
-5.576935360437832e-05
-5.62507466018645e-05
-5.662330541194078e-05
-5.676046518843028e-05
-5.638360224841121e-05
-5.50180621968783e-05
-5.230168937115316e-05
-4.796636461497705e-05
-4.223572373478168e-05
-3.545521969254414e-05
-2.81955151813787e-05
-2.105105806908826e-05
-1.452275359266405e-05
-8.912652072373879e-06
-4.433381508045666e-06
-7.95490039343552e-07
-6.005731979717804e-05
-6.033304384783891e-05
-6.060547107021677e-05
-6.08206486157464e-05
-6.067638428038202e-05
-5.966332235068275e-05
-5.72617162378341e-05
-5.324311291777765e-05
-4.767731406326323e-05
-4.092415402382687e-05
-3.356337678132657e-05
-2.62196659850789e-05
-1.942982151079823e-05
-1.351787775058612e-05
-8.724618459075322e-06
-4.728319047662642e-06
-6.438371290720444e-05
-6.443775048575276e-05
-6.457543884807459e-05
-6.483353570650306e-05
-6.488109424626082e-05
-6.414972294783758e-05
-6.208220600468973e-05
-5.834701300313315e-05
-5.294237007299456e-05
-4.621915371411067e-05
-3.877302985074347e-05
-3.126045298534227e-05
-2.424971296826413e-05
-1.808088061556815e-05
-1.301382839057035e-05
-8.699390114505559e-06
-6.861310172128928e-05
-6.843660231783189e-05
-6.842121828571942e-05
-6.866148139864526e-05
-6.8838471055811e-05
-6.834838664760216e-05
-6.656225797457907e-05
-6.306264907078261e-05
-5.77942020738243e-05
-5.109793351150204e-05
-4.35896804428004e-05
-3.595486144214058e-05
-2.878375072078463e-05
-2.242344998367755e-05
-1.714217575579317e-05
-1.256716993707836e-05
-7.26610413822623e-05
-7.22567405030279e-05
-7.206177363977644e-05
-7.224003552676027e-05
-7.248623701148522e-05
-7.216801112227899e-05
-7.058812833699878e-05
-6.725774184005282e-05
-6.20822943429496e-05
-5.540321595811261e-05
-4.785948730599985e-05
-4.01588507560339e-05
-3.289969558074821e-05
-2.642520956357817e-05
-2.100033543711143e-05
-1.62301578844283e-05
-7.650287920238741e-05
-7.588084886453929e-05
-7.549202840274648e-05
-7.556947407647057e-05
-7.582298690580355e-05
-7.559529510996996e-05
-7.412966465312852e-05
-7.088293721878338e-05
-6.574177008161604e-05
-5.906281360295998e-05
-5.150941824534119e-05
-4.380134342654605e-05
-3.652842840098678e-05
-3.002028006580751e-05
-2.452713252174205e-05
-1.962895857492084e-05
-8.016193195075007e-05
-7.933838033373572e-05
-7.875403476885262e-05
-7.870183868335886e-05
-7.890450345343945e-05
-7.86790891237186e-05
-7.72211381826202e-05
-7.395640378844824e-05
-6.877913231548324e-05
-6.207704088303129e-05
-5.453557342340601e-05
-4.687215917485156e-05
-3.9650028370787e-05
-3.318015098278803e-05
-2.768765221741809e-05
-2.272682078276101e-05
-8.36966434373225e-05
-8.269108556699828e-05
-8.191974794532583e-05
-8.172046121253095e-05
-8.18187673780876e-05
-8.15025077465708e-05
-7.993440678237559e-05
-7.653966513570912e-05
-7.125049706112652e-05
-6.449922732586089e-05
-5.698608612582494e-05
-4.940791444620266e-05
-4.228247962971314e-05
-3.589846473411156e-05
-3.043795874773839e-05
-2.54604162365501e-05
-8.718526587055828e-05
-8.601751603073769e-05
-8.50743571917388e-05
-8.47188815184484e-05
-8.466090056326595e-05
-8.415518343292121e-05
-8.235219171624353e-05
-7.871314549064837e-05
-7.323888847911186e-05
-6.641427389562189e-05
-5.894202555296594e-05
-5.147879026586531e-05
-4.448057531295441e-05
-3.820379078864486e-05
-3.274162025983765e-05
-2.773995262761335e-05
-9.071024190605623e-05
-8.939807866086141e-05
-8.830001864049817e-05
-8.778105658449469e-05
-8.751142066709973e-05
-8.671167716370348e-05
-8.454780442413005e-05
-8.05570200708134e-05
-7.483481528354175e-05
-6.791830295902683e-05
-6.049678061697646e-05
-5.316965683159786e-05
-4.632390416689387e-05
-4.017368128533272e-05
-3.468453303457641e-05
-2.968868470019244e-05
1.31571026891515e-05
1.366412573862928e-05
1.358715462630767e-05
1.312460453780642e-05
1.244088139004541e-05
1.165505789716164e-05
1.08407856841274e-05
1.003960470566907e-05
9.274167241763418e-06
8.556235135645515e-06
7.890838626703848e-06
7.27874281951141e-06
6.718182022493049e-06
6.206074252570304e-06
5.738781162874153e-06
5.312528890367998e-06
4.923626773715776e-06
4.568583038406212e-06
4.24416436977157e-06
3.9474180859207e-06
3.675670038837307e-06
3.426510052494003e-06
3.19777235258846e-06
2.987514278485572e-06
2.79399479597295e-06
2.615653842722335e-06
2.451093146165393e-06
2.29905874437757e-06
2.158425208584797e-06
2.028181514981396e-06
1.907418504079137e-06
1.795317738636966e-06
1.691141565924454e-06
1.594224333301007e-06
1.503964627646731e-06
1.419818354297831e-06
1.341292659660453e-06
1.267940622406227e-06
1.199356431493965e-06
1.135171119116667e-06
1.075048822018929e-06
1.018683445023002e-06
9.657956800146439e-07
9.161303587087096e-07
8.694540943781619e-07
8.255531837269875e-07
7.842317167382625e-07
7.453099104344085e-07
7.086225728214376e-07
6.740178105001625e-07
6.413557107543157e-07
6.105074518949453e-07
5.813539502089588e-07
5.537856748140839e-07
5.277005548289972e-07
5.030056710429488e-07
4.796121330614102e-07
4.574427961252883e-07
4.364163400416321e-07
4.164754660333226e-07
3.975338733832457e-07
1.229292451867753e-05
1.298710563424684e-05
1.305796024557623e-05
1.270282590529502e-05
1.210202815213432e-05
1.138277105650656e-05
1.062154152036508e-05
9.862036669662501e-06
9.129299706446938e-06
8.43721925410503e-06
7.792430126695384e-06
7.196864554468474e-06
6.649635062324021e-06
6.148340771470873e-06
5.689873238772216e-06
5.270867921648303e-06
4.887950405876594e-06
4.537875530329199e-06
4.217604198973992e-06
3.924337522876506e-06
3.655523535967085e-06
3.408849546415388e-06
3.182227973523054e-06
2.973779196072459e-06
2.781813240448506e-06
2.604811599522261e-06
2.441409983199567e-06
2.290382368633053e-06
2.150626434379783e-06
2.021150352164173e-06
1.901060934350075e-06
1.789553063418767e-06
1.68590027434736e-06
1.589446363795383e-06
1.499597916126713e-06
1.415817670341184e-06
1.337618657993756e-06
1.264558891376761e-06
1.196236806898832e-06
1.132287101349217e-06
1.07237707329147e-06
1.016203365513473e-06
9.634890462991049e-07
9.139810130291251e-07
8.674476791791636e-07
8.236769148938738e-07
7.824741882542649e-07
7.43660925584251e-07
7.070729981586785e-07
6.725594497725553e-07
6.399811953610405e-07
6.092101460293377e-07
5.801278666451008e-07
5.526254046409328e-07
5.266011988576729e-07
5.019627942489456e-07
4.786216962755143e-07
4.565011495215641e-07
4.355201087369684e-07
4.156216304828082e-07
3.967193535155544e-07
1.062345319242551e-05
1.166958279916799e-05
1.202328456073632e-05
1.187545952366203e-05
1.143534139846728e-05
1.084557484675851e-05
1.018798184411452e-05
9.510232078684423e-06
8.841851193218431e-06
8.200776563988078e-06
7.596728333547293e-06
7.033898831604026e-06
6.513109512034282e-06
6.033288984927804e-06
5.592365804685783e-06
5.187778855688746e-06
4.816776387428544e-06
4.476599980788524e-06
4.164594529949808e-06
3.878265656096681e-06
3.615303650197316e-06
3.373589334657233e-06
3.151190489067505e-06
2.946352837777665e-06
2.757488004049758e-06
2.583160220566337e-06
2.422072905104268e-06
2.273055707210379e-06
2.135052315810128e-06
2.007109116156019e-06
1.888364779928241e-06
1.778040843558746e-06
1.675433229788392e-06
1.579904608004946e-06
1.49087753489471e-06
1.407828340083572e-06
1.330281754330753e-06
1.257805645213653e-06
1.190006968080939e-06
1.126527745406494e-06
1.06704159737096e-06
1.011250636192455e-06
9.588826728447075e-07
9.096887279562011e-07
8.634408100695354e-07
8.199299320300325e-07
7.789643146270992e-07
7.403678000606514e-07
7.039783839348778e-07
6.696469822216331e-07
6.372361627770686e-07
6.066192996317137e-07
5.776792531116419e-07
5.503082252228637e-07
5.244056740241777e-07
4.998800693118933e-07
4.766437106499576e-07
4.546206128939925e-07
4.337302937002477e-07
4.139164957302834e-07
3.950927963362172e-07
8.257124615929086e-06
9.780414600001598e-06
1.052783742728261e-05
1.067305348265584e-05
1.046175739375853e-05
1.005759002808524e-05
9.549592317035674e-06
8.990633538727244e-06
8.416266840622268e-06
7.850013357353744e-06
7.305924472045034e-06
6.791406550919991e-06
6.309731741803925e-06
5.861744760360949e-06
5.446874738380114e-06
5.06372873288699e-06
4.710464920506206e-06
4.385039062750563e-06
4.085361104804268e-06
3.809385857127276e-06
3.555161790290761e-06
3.320856399139562e-06
3.104767962163987e-06
2.905328404469236e-06
2.721100441497239e-06
2.550771476497584e-06
2.393145816674407e-06
2.24713612661928e-06
2.111754711298848e-06
1.986104946894769e-06
1.869373062837641e-06
1.760820452174496e-06
1.659776553419732e-06
1.565632301243349e-06
1.477834177937512e-06
1.395878869635677e-06
1.319308281540394e-06
1.247705333529322e-06
1.18068966522362e-06
1.117914243646978e-06
1.059062151181627e-06
1.003843692920791e-06
9.51993782459257e-07
9.032696128847597e-07
8.574485732389419e-07
8.143263791333932e-07
7.737153705740937e-07
7.354430053459032e-07
6.993504587102918e-07
6.652914491707476e-07
6.331310188145344e-07
6.027447299944444e-07
5.740173816229308e-07
5.468429016005774e-07
5.211222759766456e-07
4.967653532954627e-07
4.736856307691386e-07
4.518082573996079e-07
4.310536277854686e-07
4.113664523099784e-07
3.926603600759605e-07
5.336283554057935e-06
7.413183701492405e-06
8.632755080557077e-06
9.137519397804381e-06
9.210291321513855e-06
9.038602296345555e-06
8.719772390781272e-06
8.312400168984156e-06
7.858908189901387e-06
7.389407768189564e-06
6.923200645457437e-06
6.471668908765867e-06
6.04115578973901e-06
5.634924514478846e-06
5.254308676157633e-06
4.899407252381053e-06
4.5695482493592e-06
4.263610634440131e-06
3.9802377538697e-06
3.717969439886346e-06
3.475322139681565e-06
3.250838922334103e-06
3.043120698593492e-06
2.85084429857467e-06
2.672771480077269e-06
2.50775212852215e-06
2.354723803775838e-06
2.212708947373316e-06
2.080810690985907e-06
1.958207894951283e-06
1.84414980168983e-06
1.737950628119448e-06
1.638984265876369e-06
1.546679199661934e-06
1.460513723371901e-06
1.38001150810482e-06
1.304737533444143e-06
1.234294445814977e-06
1.16831883635973e-06
1.106478217444008e-06
1.048468237596079e-06
9.940100855425231e-07
9.42848120378553e-07
8.947477484721366e-07
8.494935161359521e-07
8.068873914179909e-07
7.667471897478334e-07
7.289051744775095e-07
6.932067460956393e-07
6.595093474106871e-07
6.27681309605132e-07
5.976011026839838e-07
5.691561026431541e-07
5.422425268327703e-07
5.167633961060976e-07
4.926303810916818e-07
4.697585887297123e-07
4.480746408244944e-07
4.27500162286665e-07
4.079810379696832e-07
3.894312320746181e-07
2.019749904878972e-06
4.675829000987525e-06
6.40992884530646e-06
7.31863325769751e-06
7.715878490583514e-06
7.812797348048551e-06
7.715092345092876e-06
7.486947975450678e-06
7.177756417493052e-06
6.824617438974343e-06
6.452608338721056e-06
6.077613002807363e-06
5.709517985394304e-06
5.354406538347162e-06
5.015849703709724e-06
4.695712953279676e-06
4.394720331146637e-06
4.112859782238191e-06
3.849660145548588e-06
3.604370708145819e-06
3.376077724602731e-06
3.163783159670181e-06
2.966458745965857e-06
2.783082109103002e-06
2.612659983307918e-06
2.454242600829617e-06
2.306932086658022e-06
2.169886656260694e-06
2.042321931435972e-06
1.923510361829687e-06
1.812779373973928e-06
1.709508747905688e-06
1.613127572764256e-06
1.523110995163102e-06
1.438976892408549e-06
1.360282574143056e-06
1.286621709152922e-06
1.217621399102981e-06
1.152939464741592e-06
1.09226151962991e-06
1.035298871559898e-06
9.817862455862985e-07
9.314797461395802e-07
8.84155005530163e-07
8.396054872069523e-07
7.976409480167252e-07
7.580860243757998e-07
7.207789660854379e-07
6.855704342159036e-07
6.523225067694936e-07
6.209076076483037e-07
5.912078238973033e-07
5.631137423036634e-07
5.365244246744792e-07
5.113454307780133e-07
4.874906810383747e-07
4.648773148670777e-07
4.434337317824979e-07
4.230831931774654e-07
4.037728671750073e-07
3.854175572076905e-07
-1.533980785496803e-06
1.680571476989276e-06
3.936098709166938e-06
5.270342220308707e-06
6.017102102855689e-06
6.407484861523989e-06
6.554626626500585e-06
6.527596765863371e-06
6.382206391960486e-06
6.162346534718244e-06
5.898978321827352e-06
5.612750515724015e-06
5.317395419746742e-06
5.02210240951458e-06
4.732933014633358e-06
4.453738251307404e-06
4.186825567436177e-06
3.933450200841337e-06
3.694159100521275e-06
3.469021705000022e-06
3.257786257417765e-06
3.059990136433906e-06
2.875039260193318e-06
2.702264503363413e-06
2.540961056977803e-06
2.390415611675806e-06
2.249924907697647e-06
2.11880800683413e-06
1.99641400595973e-06
1.882126550938145e-06
1.775366067287392e-06
1.675590397302435e-06
1.582294392050735e-06
1.495008798340366e-06
1.413298671264555e-06
1.33676148987706e-06
1.265025185367263e-06
1.197746178869219e-06
1.134607316480504e-06
1.075316053396386e-06
1.019602404389557e-06
9.672172754995861e-07
9.179307989993592e-07
8.715308112405563e-07
8.278214195578562e-07
7.866216777925016e-07
7.477643705351402e-07
7.110949035811139e-07
6.764702227393576e-07
6.437579422985144e-07
6.12835371833643e-07
5.835889093145429e-07
5.559129774920841e-07
5.297100286277371e-07
5.048886648347731e-07
4.813654648605982e-07
4.590600349892909e-07
4.379028138598212e-07
4.178191705092154e-07
3.987575434764415e-07
3.806343499345079e-07
-5.179677900978885e-06
-1.464712484418897e-06
1.287381403874398e-06
3.046963227281864e-06
4.153493527391831e-06
4.851363230035789e-06
5.258982998716423e-06
5.449086618551283e-06
5.482842941514251e-06
5.410246940392911e-06
5.267879185764799e-06
5.081161214921716e-06
4.867799154477905e-06
4.640253212162983e-06
4.40724350784346e-06
4.174765773796992e-06
3.946855180131735e-06
3.726161082944087e-06
3.514358228663352e-06
3.312430550650194e-06
3.120869000713928e-06
2.9398148714723e-06
2.769165972040604e-06
2.608654858829965e-06
2.457905792503207e-06
2.316475985480674e-06
2.183885374517865e-06
2.059637872520623e-06
1.943236254018713e-06
1.834192392545998e-06
1.732034100856359e-06
1.636309471325169e-06
1.546589452118663e-06
1.462469162259078e-06
1.383568290431388e-06
1.309530863845312e-06
1.240024556067641e-06
1.174739768269448e-06
1.113388569258269e-06
1.055703523674004e-06
1.001436389986636e-06
9.503568732349027e-07
9.022514166704033e-07
8.569220350588157e-07
8.141851877274011e-07
7.738707020424128e-07
7.358208077213093e-07
6.998892191483605e-07
6.659401859155197e-07
6.338477273957238e-07
6.034948224578657e-07
5.747728631962638e-07
5.475807221994962e-07
5.218247725298051e-07
4.97417162169411e-07
4.742775178412294e-07
4.523283613246649e-07
4.315023800768559e-07
4.11727595905418e-07
3.929535622845455e-07
3.750993934472125e-07
-8.793622353681975e-06
-4.661952127042477e-06
-1.463937125841103e-06
7.006849395012245e-07
2.16299477822709e-06
3.172122533312489e-06
3.84836409025683e-06
4.266178285342977e-06
4.490488235051475e-06
4.576286612894694e-06
4.565205351728856e-06
4.487228264694432e-06
4.364005837370663e-06
4.211322030011421e-06
4.040645198279314e-06
3.860219361382887e-06
3.675910958379516e-06
3.491859194048878e-06
3.310952253991605e-06
3.135164782631539e-06
2.965798088602745e-06
2.80365674788604e-06
2.649181830975218e-06
2.502551580615792e-06
2.363756817514523e-06
2.232657120697827e-06
2.109022618159344e-06
1.992564931580476e-06
1.882959874612291e-06
1.779863961944291e-06
1.682926316028069e-06
1.591797110637638e-06
1.506133460971444e-06
1.425603439921199e-06
1.349888696905332e-06
1.278686048563508e-06
1.211708260227913e-06
1.148684340788452e-06
1.089359544736621e-06
1.033495014652602e-06
9.808671517157375e-07
9.312669915720965e-07
8.844995127159463e-07
8.403828451954365e-07
7.987474966871717e-07
7.594355217772262e-07
7.222998830579468e-07
6.872036962822129e-07
6.54019593308386e-07
6.226288390578843e-07
5.929208003690718e-07
5.647925376216725e-07
5.381479945609415e-07
5.128979720331929e-07
4.889586575943499e-07
4.662530958890686e-07
4.447071895503178e-07
4.24256030592654e-07
4.048309171603719e-07
3.863822073758924e-07
3.688331324453666e-07
-1.227967716404431e-05
-7.825769900474498e-06
-4.248542819750979e-06
-1.715820165038791e-06
8.39679779196774e-08
1.397070013697379e-06
2.342133706331656e-06
2.992715392624297e-06
3.415142883016269e-06
3.667755080318201e-06
3.796317852635774e-06
3.834933296643744e-06
3.809002388340836e-06
3.737570830446576e-06
3.634866143024269e-06
3.51143088783349e-06
3.375030433945182e-06
3.231364457776775e-06
3.084601060380708e-06
2.937766437561714e-06
2.793027893970727e-06
2.651903808944309e-06
2.515423638758115e-06
2.384250991383907e-06
2.258777763211417e-06
2.13919569887585e-06
2.025550695636733e-06
1.917783943930079e-06
1.815762936080706e-06
1.719304713189651e-06
1.628193238550392e-06
1.542192299348473e-06
1.461055020932537e-06
1.384530839275657e-06
1.312370552396265e-06
1.244329900630738e-06
1.180172014351931e-06
1.11966908047723e-06
1.062603440761685e-06
1.008768150399118e-06
9.579671756347e-07
9.100154279082595e-07
8.647385843840406e-07
8.219727745744854e-07
7.815642583106968e-07
7.43368629406581e-07
7.072510053262123e-07
6.73084828355723e-07
6.407520442189321e-07
6.101423434554265e-07
5.81152049934951e-07
5.536844963151182e-07
5.276493397046611e-07
5.029623135878984e-07
4.795441175498614e-07
4.573215535517063e-07
4.362243815100078e-07
4.161902084401686e-07
3.971542970720826e-07
3.790673532682054e-07
3.618584875891575e-07
-1.557610133617392e-05
-1.08905657727842e-05
-7.000954705590467e-06
-4.14347653043143e-06
-2.035494805388963e-06
-4.375172374519216e-07
7.665235473662338e-07
1.647365029143505e-06
2.270058426830291e-06
2.694082753168836e-06
2.967958723773049e-06
3.129127795196658e-06
3.206311575849449e-06
3.221590290979363e-06
3.191842884321628e-06
3.129873910946536e-06
3.045354201043792e-06
2.945574240653529e-06
2.836022564062505e-06
2.720820206586805e-06
2.60304352062436e-06
2.484965994291345e-06
2.368243849971012e-06
2.254060812654329e-06
2.143240807429439e-06
2.036335021596765e-06
1.933688948098736e-06
1.835493996805064e-06
1.741827131973935e-06
1.652681202154894e-06
1.567988106467222e-06
1.487636451382114e-06
1.411484963686671e-06
1.339372655240377e-06
1.271126504343777e-06
1.206567212674829e-06
1.145513469393845e-06
1.087785095443308e-06
1.033205338297692e-06
9.816024782771339e-07
9.328109246945369e-07
8.866719261541762e-07
8.430339977854118e-07
8.017531413634324e-07
7.626928173932206e-07
7.257242108840761e-07
6.907252446553119e-07
6.575810215502089e-07
6.261834585725322e-07
5.964315122614585e-07
5.682294156239531e-07
5.41487409734972e-07
5.161213924920723e-07
4.920525317973856e-07
4.692065427148862e-07
4.475142837230656e-07
4.269098275978582e-07
4.07333388738709e-07
3.887249102794804e-07
3.710348801398935e-07
3.542003283734935e-07
-1.865815675371437e-05
-1.383331649693566e-05
-9.686285045717375e-06
-6.535995776554849e-06
-4.146042789898078e-06
-2.286422034744373e-06
-8.406058309401459e-07
2.603309764095333e-07
1.078777265055773e-06
1.6734430462128e-06
2.094110766233584e-06
2.380557627158664e-06
2.564184036964894e-06
2.669715887133151e-06
2.71645618465678e-06
2.719337118839079e-06
2.689856168780208e-06
2.636853072849828e-06
2.567120935432772e-06
2.485877336854299e-06
2.397121405116799e-06
2.303902921127561e-06
2.20852939465191e-06
2.112729489945825e-06
2.017782641551355e-06
1.924620966634657e-06
1.833908871788947e-06
1.746105148121064e-06
1.661511340440795e-06
1.58030932040464e-06
1.502590427961347e-06
1.428378062809248e-06
1.357645178173708e-06
1.290327812978034e-06
1.226335558072469e-06
1.16555963074917e-06
1.107879062100638e-06
1.053165423280623e-06
1.001286440547437e-06
9.521087282576998e-07
9.054998074646207e-07
8.61329590470984e-07
8.194714736713217e-07
7.798030871722103e-07
7.422067477118968e-07
7.065698570501939e-07
6.727849506888026e-07
6.407500160763774e-07
6.103681878595593e-07
5.815471376443483e-07
5.542002971146983e-07
5.282457425742132e-07
5.036060104102756e-07
4.802079633315231e-07
4.579829560427138e-07
4.368662235527611e-07
4.167965360570321e-07
3.977168089518106e-07
3.79572306318491e-07
3.623127844064442e-07
3.458852716181358e-07
-2.152382619709096e-05
-1.670812732886775e-05
-1.23711791283498e-05
-8.945529941826582e-06
-6.279241223215494e-06
-4.165018737982658e-06
-2.484623241939209e-06
-1.168300327396158e-06
-1.558300836892272e-07
6.100492200311921e-07
1.179560446020446e-06
1.594149224732702e-06
1.887408044473726e-06
2.086403442065557e-06
2.212709673645015e-06
2.283328059282561e-06
2.311566643820125e-06
2.307810469543472e-06
2.280153422466704e-06
2.234905808731603e-06
2.176990289292937e-06
2.110241327070361e-06
2.037632949076031e-06
1.961457827317229e-06
1.883470909190182e-06
1.805004354152907e-06
1.727058856737664e-06
1.6503759791215e-06
1.575495308593627e-06
1.502799456593798e-06
1.432549386985477e-06
1.36491213285603e-06
1.299982539360906e-06
1.237800316425713e-06
1.178363420781804e-06
1.121638557357962e-06
1.067569391428378e-06
1.016082959818293e-06
9.670946922884535e-07
9.205123235934293e-07
8.762388970490986e-07
8.341750825525902e-07
7.942209588789047e-07
7.562773440009585e-07
7.20246784612145e-07
6.860343244877659e-07
6.535480473333109e-07
6.226994410807556e-07
5.9340321427927e-07
5.655777536817533e-07
5.391457469769522e-07
5.140333894305854e-07
4.901704044118576e-07
4.674902749788227e-07
4.459297233915352e-07
4.254289019718551e-07
4.059316028600294e-07
3.873836158501255e-07
3.697357904700174e-07
3.529369321591403e-07
3.36945625657074e-07
-2.41351611134464e-05
-1.959032503232799e-05
-1.521278925853819e-05
-1.156098728524314e-05
-8.620249919393398e-06
-6.2384964140841e-06
-4.30675236081936e-06
-2.7568538207731e-06
-1.531689874803756e-06
-5.76406916123887e-07
1.589489445055745e-07
7.17121477278302e-07
1.133726648481217e-06
1.438109726916108e-06
1.654146247947804e-06
1.801031348903832e-06
1.894085232780606e-06
1.945475099919415e-06
1.96482115129635e-06
1.959711706029506e-06
1.936133431830339e-06
1.898811212343579e-06
1.851468869243264e-06
1.797032318158366e-06
1.737791502278005e-06
1.675530161221516e-06
1.611629630570204e-06
1.547151938970082e-06
1.482906375353015e-06
1.41950266564508e-06
1.35739328705746e-06
1.29690706127168e-06
1.238275800135329e-06
1.181655429663854e-06
1.127142739228279e-06
1.074788672798133e-06