/*--------------------------------*- C++ -*----------------------------------*\
| =========                 |                                                 |
| \\      /  F ield         | OpenFOAM: The Open Source CFD Toolbox           |
|  \\    /   O peration     | Version:  2206                                  |
|   \\  /    A nd           | Website:  www.openfoam.com                      |
|    \\/     M anipulation  |                                                 |
\*---------------------------------------------------------------------------*/
FoamFile
{
    version     2.0;
    format      ascii;
    arch        "LSB;label=32;scalar=64";
    class       scalarField;
    location    "0";
    object      snapshot0_stdmd21_U;
}
// * * * * * * * * * * * * * * * * * * * * * * * * * * * * * * * * * * * * * //


456
(
0.01297663785103727
0.01297683568641251
0.01297704863613068
0.01297727625944108
0.0129775175386091
0.01297777139904329
0.0129780369520622
0.01297831349059097
0.01297860040785045
0.01297889713248781
0.01297920309556581
0.01297951771796134
0.01297984040691373
0.01298017055587647
0.01298050754540087
0.01298085074432518
0.01298119951105438
0.01298155319486617
0.01298191113721866
0.0129822726730581
0.01298263713212612
0.01298300384026954
0.01298337212074744
0.01298374129553395
0.01298411068660878
0.01298447961723508
0.01298484741321832
0.01298521340414724
0.01298557692461107
0.01298593731539496
0.01298629392464808
0.0129866461090263
0.01298699323480428
0.01298733467895925
0.0129876698302217
0.01298799809009517
0.01298831887384132
0.01298863161143212
0.01298893574846571
0.01298923074704856
0.01298951608663964
0.01298979126486033
0.01299005579826567
0.01299030922308002
0.01299055109589423
0.01299078099432644
0.0129909985176435
0.01299120328734558
0.01299139494770814
0.01299157316627394
0.0129917376342446
0.01299188806660165
0.01299202420138653
0.01299214579664454
0.01299225262208418
0.01299234444266012
0.01299242100002733
0.01299248202385997
0.01299252733289423
0.01299255703971359
0.01299257164269379
0.01297535478911611
0.0129753658166421
0.01297538786019746
0.0129754208915077
0.01297546486641155
0.01297551972329268
0.01297558537873156
0.01297566171696083
0.01297574856902461
0.0129758456803839
0.01297595267836717
0.0129760690745413
0.01297619435382271
0.01297632816535098
0.01297647052197571
0.012976638848359
0.01297683695594537
0.01297705009073784
0.01297727781100664
0.01297751912713109
0.01297777299426001
0.01297803854293608
0.01297831507523047
0.01297860198764063
0.0129788987095403
0.01297920467185881
0.01297951929513035
0.01297984198623303
0.01298017213827743
0.01298050913149654
0.01298085233444201
0.01298120110527539
0.01298155479308063
0.01298191273917308
0.01298227427840242
0.01298263874045306
0.01298300545114748
0.01298337373374814
0.0129837429102559
0.012984112302697
0.01298448123439686
0.0129848490312354
0.01298521502288376
0.0129855785440178
0.01298593893550947
0.01298629554559134
0.01298664773099579
0.01298699485806429
0.01298733630382869
0.01298767145706004
0.01298799971928733
0.01298832050578166
0.01298863324650886
0.01298893738704588
0.01298923238946419
0.01298951773317577
0.01298979291574502
0.012990057453662
0.01299031088308053
0.01299055276051658
0.01299078266351065
0.01299100019124918
0.0129912049651488
0.0129913966293965
0.0129915748514414
0.01299173932239293
0.01299188975718103
0.01299202589398553
0.01299214749164305
0.01299225432247369
0.01299234615808562
0.01299242275322935
0.01299248385534474
0.01299252929195299
0.01299255914962674
0.01299257385382939
0.01297535479143246
0.01297536582417197
0.01297538787359892
0.0129754209106344
0.01297546489047019
0.01297551975115347
0.01297558540934737
0.01297566175026468
0.01297574860780589
0.0129758457337446
0.01297595276682663
0.01297606923511905
0.01297619464076948
0.0129763286410552
0.01297647123672817
-2.973886493689379e-06
-3.177021919051246e-06
-3.373906139754578e-06
-3.564237122748744e-06
-3.747711095730206e-06
-3.923996679928113e-06
-4.09277028734928e-06
-4.25372403881526e-06
-4.406566801495581e-06
-4.55102454523233e-06
-4.686840743182153e-06
-4.813776803702642e-06
-4.93161245496923e-06
-5.040146056891914e-06
-5.139194857720181e-06
-5.228595214126807e-06
-5.308202777896929e-06
-5.377892639279355e-06
-5.437559415906629e-06
-5.487117283709081e-06
-5.526499952399804e-06
-5.555660591316588e-06
-5.574571712045446e-06
-5.583225012943598e-06
-5.58163118956443e-06
-5.569819713875992e-06
-5.547838582458889e-06
-5.515754035524091e-06
-5.473650249291842e-06
-5.421629002267483e-06
-5.359809316752128e-06
-5.288327077078739e-06
-5.207334626127269e-06
-5.11700034151436e-06
-5.01750819307006e-06
-4.909057283091951e-06
-4.79186137090266e-06
-4.666148383169196e-06
-4.532159911438435e-06
-4.390150698326589e-06
-4.2403881136831e-06
-4.083151622004057e-06
-3.918732242330451e-06
-3.747432001706765e-06
-3.56956338324637e-06
-3.38544876974987e-06
-3.195419883523677e-06
-2.999817223124296e-06
-2.798989497320776e-06
-2.593293056474039e-06
-2.383091322290217e-06
-2.168754217437658e-06
-1.950657594303971e-06
-1.729182668816808e-06
-1.504715505895054e-06
-1.277646665207117e-06
-1.048371330869693e-06
-8.172920657862067e-07
-5.848332738128508e-07
-3.514610111938127e-07
-1.172938977658929e-07
-1.001014428891859e-07
-3.011786362843431e-07
-5.018560049726019e-07
-7.018679466775766e-07
-9.009496129969208e-07
-1.09883738950563e-06
-1.295269301743456e-06
-1.489985421991197e-06
-1.682728355570161e-06
-1.873243841265608e-06
-2.06128122866051e-06
-2.246592033778102e-06
-2.428918841553618e-06
-2.607967238798382e-06
-2.783508009242542e-06
2.974860658021059e-06
3.177984056373157e-06
3.374854578095358e-06
3.565169778728012e-06
3.748625665232097e-06
3.924890941165238e-06
4.093642331487389e-06
4.254572388354477e-06
4.407390442775736e-06
4.551822912997934e-06
4.687613683177148e-06
4.814524520846048e-06
4.932335446947409e-06
5.040845036329419e-06
5.139870671454891e-06
5.229248769357525e-06
5.308834982148503e-06
5.378504356448766e-06
5.438151436843975e-06
5.487690308440248e-06
5.527054581025521e-06
5.556197321320873e-06
5.575090940537725e-06
5.583727042970599e-06
5.582116239837962e-06
5.570287931334061e-06
5.548290057104469e-06
5.516188816886266e-06
5.474068363808355e-06
5.422030470834796e-06
5.360194171779397e-06
5.28869537839452e-06
5.207686475100135e-06
5.117335892931443e-06
5.017827664357209e-06
4.909360960658665e-06
4.792149613450215e-06
4.666421622039309e-06
4.532418648196461e-06
4.390395499863234e-06
4.240619605312799e-06
4.083370479163274e-06
3.918939181466274e-06
3.747627771069643e-06
3.569748754184107e-06
3.385624528980195e-06
3.195586826687171e-06
2.999976149570535e-06
2.7991412057073e-06
2.593438339787033e-06
2.383230959762073e-06
2.168888960458273e-06
1.950788139322256e-06
1.729309593230143e-06
1.504839117259146e-06
1.277766677769566e-06
1.048486201097401e-06
8.173978233248097e-07
5.849222545525382e-07
3.515220645962333e-07
1.173156531758555e-07
1.011092169016029e-07
3.021867766688179e-07
5.028650498628531e-07
7.028781786152607e-07
9.019611409556099e-07
1.099850141762398e-06
1.296282986004022e-06
1.490999488518408e-06
1.683741974133697e-06
1.874255905550251e-06
2.062290405914841e-06
2.247596872414361e-06
2.429917924028552e-06
2.608959343111417e-06
2.784492147382988e-06
0
0
0
0
0
0
0
0
-1.075927354751232e-23
1.075926378163572e-23
0
0
0
0
0
0
-5.12098267037545e-24
1.094357638412137e-23
-5.822592878719928e-24
0
0
0
0
0
0
0
3.352104127673396e-24
-7.702775481501735e-24
4.350670268575078e-24
0
0
-8.219850243237238e-24
8.219841513567213e-24
0
1.094513262594585e-23
-1.094512163349385e-23
0
0
0
0
0
0
0
0
0
0
0
0
0
0
0
0
0
0
2.264816355621956e-23
-2.26481571930952e-23
0
0
0
0
0
2.331767883628608e-25
-2.331767805755023e-25
2.783098541122619e-24
-2.783098262716704e-24
0
0
0
0
0
3.485692197287501e-24
-3.485691067766865e-24
3.378378722970143e-24
-3.378377441373164e-24
0
0
0
0
0
0
0
0
0
0
-1.07563755687187e-23
1.07563658055706e-23
0
0
0
0
0
0
-5.117630151439727e-24
1.093567645103491e-23
-5.81804546591727e-24
0
0
0
0
0
0
0
3.35766309973129e-24
-7.714029525378597e-24
4.356365340283406e-24
0
0
-8.226097671458382e-24
8.226088935123179e-24
0
1.095178193392884e-23
-1.095177093472147e-23
0
0
0
0
0
0
0
0
0
0
0
0
0
0
0
0
0
0
2.265693992063132e-23
-2.265693355401962e-23
0
0
0
0
0
2.33176611870997e-25
-2.331766040800271e-25
2.783089298272413e-24
-2.783089019819944e-24
0
0
0
0
0
3.485577123781098e-24
-3.485575993933837e-24
3.378210613040975e-24
-3.378209330216434e-24
0
0
)


// ************************************************************************* //
