/*--------------------------------*- C++ -*----------------------------------*\
| =========                 |                                                 |
| \\      /  F ield         | OpenFOAM: The Open Source CFD Toolbox           |
|  \\    /   O peration     | Version:  2206                                  |
|   \\  /    A nd           | Website:  www.openfoam.com                      |
|    \\/     M anipulation  |                                                 |
\*---------------------------------------------------------------------------*/
FoamFile
{
    version     2.0;
    format      ascii;
    arch        "LSB;label=32;scalar=64";
    class       scalarField;
    location    "0";
    object      snapshot0_stdmd38_pMean;
}
// * * * * * * * * * * * * * * * * * * * * * * * * * * * * * * * * * * * * * //


120
(
-9.434482519013843e-05
-9.814346934940426e-05
-0.0001021364961906725
-0.0001063286263881168
-0.0001107002971088625
-0.0001152090535929439
-0.0001197925563085826
-0.0001243709163652531
-0.0001288484275257842
-0.0001331159937156579
-0.000137053930898437
-0.0001405353765836098
-0.0001434302930309777
-0.0001456099572335898
-0.0001469516313100087
-4.191946986534576e-05
-4.301212389357256e-05
-4.511604739416379e-05
-4.808023694438681e-05
-5.170513263924177e-05
-5.576935360437832e-05
-6.005731979717804e-05
-6.438371290720444e-05
-6.861310172128928e-05
-7.26610413822623e-05
-7.650287920238741e-05
-8.016193195075007e-05
-8.36966434373225e-05
-8.718526587055828e-05
-9.071024190605623e-05
0.0001058050285562515
0.00010427037569857
0.0001012201580449308
9.669229394712966e-05
9.074307486061683e-05
8.344649471997209e-05
7.489334670575975e-05
6.519010718401145e-05
5.445761797306239e-05
4.282957672976469e-05
3.045084843041612e-05
1.747561197058075e-05
4.065367050111798e-06
-9.613175180201087e-06
-2.339025951717192e-05
-3.709520523964175e-05
-5.05577092739842e-05
-6.360803107856411e-05
-7.60829907272939e-05
-8.790761853226822e-05
-9.887083977756425e-05
-0.0001088688816732329
-0.0001178226936610893
-0.0001256544083108615
-0.0001323029904768857
-0.0001377312112534909
-0.0001419261510634951
-0.0001448991007887239
-0.0001466852816104438
-0.0001473428802850693
-9.434428925165722e-05
-9.814292177294134e-05
-0.0001021359372874347
-0.0001063280573253382
-0.0001106997196210176
-0.0001152084699163892
-0.0001197919689280092
-0.000124370327990022
-0.0001288478410024813
-0.0001331154119486183
-0.0001370533567698476
-0.0001405348128696627
-0.0001434297423012166
-0.0001456094217495891
-0.0001469511130812822
-4.191941037648868e-05
-4.301194928374233e-05
-4.511576945972524e-05
-4.807987442189512e-05
-5.170470614675912e-05
-5.576888261432661e-05
-6.005682183021071e-05
-6.438320192884577e-05
-6.861258708743756e-05
-7.266052832072574e-05
-7.650236905191915e-05
-8.016142310757858e-05
-8.369613268980723e-05
-8.718474955503876e-05
-9.070971686463462e-05
0.0001058050348785812
0.0001042703945809961
0.0001012201896995181
9.669233866568113e-05
9.074313281446396e-05
8.344656587760645e-05
7.489343101957403e-05
6.519020461175047e-05
5.445772851340264e-05
4.282970046043978e-05
3.045098552867142e-05
1.747576272502609e-05
4.065531867581453e-06
-9.612995782677851e-06
-2.339006490658575e-05
-3.709499469307583e-05
-5.05574820285925e-05
-6.360778606873864e-05
-7.608272707410594e-05
-8.790733550330386e-05
-9.887053639392231e-05
-0.0001088685574262743
-0.0001178223480326027
-0.0001256540407664274
-0.0001323026006135371
-0.0001377307988690428
-0.0001419257161924737
-0.0001448986437389996
-0.0001466848030078858
-0.0001473423811308708
)


// ************************************************************************* //
