/*--------------------------------*- C++ -*----------------------------------*\
| =========                 |                                                 |
| \\      /  F ield         | OpenFOAM: The Open Source CFD Toolbox           |
|  \\    /   O peration     | Version:  2206                                  |
|   \\  /    A nd           | Website:  www.openfoam.com                      |
|    \\/     M anipulation  |                                                 |
\*---------------------------------------------------------------------------*/
FoamFile
{
    version     2.0;
    format      ascii;
    arch        "LSB;label=32;scalar=64";
    class       scalarField;
    location    "0";
    object      snapshot0_stdmd54_UMean_movingAverageWindow;
}
// * * * * * * * * * * * * * * * * * * * * * * * * * * * * * * * * * * * * * //


104292
(
-0.0004578906120957693
-0.0002157530051527029
0.001034448212590421
0.003101978025866279
0.005714107489744991
0.008518891441190835
0.01114232230479823
0.01329490640162831
0.0148408835572702
0.01579144505307235
0.01625101179699981
0.01635760624688662
0.01624312155002499
0.0160025926662823
0.0157356356885432
0.01539330684183854
-0.0003712282992322685
0.0001081347288016255
0.001649312287358858
0.004019298381625017
0.006879523320627566
0.009812730858219255
0.01242109116282256
0.01444435073634716
0.01580319309624862
0.01656156802163809
0.01685728331607086
0.01684141479687985
0.01664370650284447
0.01635449846676151
0.01605125404161716
0.01570593835926504
-0.0002615573573671756
0.0004991290250071586
0.00236396995923521
0.005042230655289681
0.008117996368265577
0.01111649878774785
0.01364129301290426
0.01548422311739272
0.01663121166197219
0.01719574613785589
0.01734049544017547
0.0172209114120211
0.01695902375865238
0.01663411748654256
0.0163092458943345
0.01596461198672658
-0.0001259438592284554
0.0009600790317360467
0.003175105392437496
0.006154642473232296
0.009399390245441315
0.01239477778713153
0.01477431274757104
0.01639986702308598
0.01732463292912998
0.01770412607768148
0.017716079108522
0.01751254112847424
0.01720322281553641
0.01685534535127541
0.01651719606222977
0.01617202467849479
3.827923045781515e-05
0.001491754628397377
0.004074516199658814
0.00733387018428746
0.01068980628582971
0.01361435774579028
0.01579840266618075
0.01718465278628049
0.0178895039662592
0.01810031223945885
0.01800019833761168
0.01773148781466162
0.01738908019660188
0.01702745892698587
0.01668226813167168
0.01634112147897625
0.0002331208678410723
0.002092361714967134
0.005049262517756357
0.008552715289738316
0.01195534581696561
0.01474749384025493
0.01669980714439597
0.01783905507615377
0.01833619907746007
0.01839920270501033
0.01820801919668583
0.01789084991161191
0.01752682615088173
0.01715846609714773
0.0168111499463828
0.01647522537283331
0.0004596035535401085
0.002757172445458025
0.006082134682366812
0.009781733653646299
0.0131651544106451
0.01577352572127177
0.01747232192323386
0.01836888521188862
0.01867732035338762
0.01861525647860618
0.01835265737475703
0.01800107092887
0.01762425403085193
0.01725412106241932
0.01690788080280597
0.01657830486567185
0.0007175798062726007
0.003478393480059389
0.007152488397807116
0.01099148264303892
0.01429336201579773
0.01667905337372126
0.01811591216005417
0.01878330330485336
0.01892592202049652
0.01876135081985624
0.01844470380833312
0.0180700065581047
0.01768693438566158
0.01731846486562753
0.01697558966283874
0.01665300060329428
0.001005604564064106
0.004245240748534364
0.00823737900316409
0.01215444719886002
0.01531993663949517
0.01745713763787935
0.01863497113006451
0.01909303126579404
0.01909423980468125
0.01884819235923908
0.01849220537020452
0.01810320490887962
0.0177186027223548
0.01735414767452337
0.01701621887558204
0.01670098812892631
0.001320871434134789
0.005044244485486496
0.009312866589396555
0.01324643422850243
0.01623069642889695
0.01810601886949564
0.01903663403011123
0.01930897335190574
0.01919293437604754
0.01888416989389059
0.01850092261245985
0.01810433762036062
0.01772158197922221
0.01736275883855547
0.01703093881382578
0.01672331196234889
0.001659233151243476
0.005859780723474814
0.01035532602779003
0.01424734497652443
0.01701673947073838
0.01862772789393909
0.0193293749060305
0.01944128751231692
0.01923075933515091
0.01887549666399485
0.0184747212984254
0.01807564222360221
0.01769716592414203
0.01734513115456396
0.01702030697513355
0.01672041787987034
0.002015295135496858
0.006674780849374386
0.01134262340576295
0.01514142117872642
0.01767357425246883
0.01902681222623141
0.01952196580400966
0.01949886177282727
0.01921454076865338
0.01882651520724963
0.01841599996015388
0.01801833450320181
0.01764596609394688
0.01730162132982777
0.016984525324856
0.01669249284997129
0.002382575918856817
0.007471536760191824
0.01225503788557623
0.0159171286911783
0.01820018059391379
0.01930929563889107
0.01962279295563452
0.01948911193539239
0.01914936038731698
0.0187400736943842
0.01832609606813431
0.01793296158223779
0.01756820354332142
0.01723237405973884
0.0169237038253615
0.01663971541097335
0.002753729927838019
0.008232515672198607
0.01307580173517436
0.01656678435666708
0.01859813699980876
0.01948190444109493
0.01963947738274679
0.01941801024489201
0.01903885005736579
0.01861791192328167
0.01820564426071872
0.01781968985284576
0.01746393667275416
0.01713752880431784
0.01683808397218113
0.01656249889356921
0.003120823550193712
0.008941136558715956
0.01379136975862508
0.01708608334650645
0.01887091308352635
0.01955156765845668
0.0195787447705
0.01929027003544236
0.01888553320589582
0.01846101741260479
0.01805487024894525
0.01767852608338043
0.0173332299177467
0.01701733298959209
0.01672808820781703
0.01646149727982866
-0.0001053426599986916
-0.000656128150093982
-0.001292348201110784
-0.001848595254423049
-0.002215650184626437
-0.002351528329184538
-0.002242686744689262
-0.001895072155774762
-0.001330340829283944
-0.0005828749193788139
0.0003069571846502038
0.001291366265391934
0.002321997713751457
0.003360673122551363
0.004365949071628061
0.005331558158039594
-0.0001289945162915408
-0.0006765584435064831
-0.001286964696386537
-0.001806860059886124
-0.002133485108424442
-0.002227491455394309
-0.002077168854847329
-0.001690308900353996
-0.001090608703711328
-0.00031354231928281
0.0005970834723212784
0.001591882537183325
0.002623385003767556
0.003654019923458002
0.004640911824782191
0.005589224187563865
-0.000173817388483412
-0.000715308307075898
-0.001275777594788124
-0.0017247718140954
-0.001972103361540552
-0.001983750042351777
-0.001751840615173576
-0.001288054040202425
-0.0006200869357958822
0.0002131520781887582
0.00116267596369074
0.002176189248767281
0.003206913945762167
0.004219636269668468
0.005169203465313528
0.006082326248238739
-0.0002351885038040689
-0.0007683543587568752
-0.001257914243559118
-0.001604880102107049
-0.001737068857007248
-0.001628564865629393
-0.00127761638788056
-0.0007023075270611427
6.442059513821963e-05
0.0009760737029375545
0.001977114430618157
0.003013081196611354
0.004037280103343447
0.005019257601245918
0.005911847755896159
0.006771087214928776
-0.0003069645682993031
-0.000830131509418854
-0.001231982283689652
-0.001450484640783743
-0.001435884144836019
-0.001173251555444828
-0.0006692643181398811
4.814996478096603e-05
0.0009387224511442519
0.001946017708257385
0.003004922611265798
0.004061056510950373
0.005068102233662569
0.006003252462092755
0.006818964297778643
0.007605304871537197
-0.0003822935920263425
-0.0008940253190247219
-0.001195929140608882
-0.00126493840262003
-0.001076788714792205
-0.0006309595011137444
5.45972924382328e-05
0.000942461661819238
0.001976102806149883
0.003086801304884419
0.004204489624716738
0.005271976593883251
0.006246492241593791
0.007116152030949234
0.007835967852147692
0.00853131376389926
-0.0004544895880616339
-0.0009529346144797321
-0.001146897583862482
-0.001051015458486175
-0.0006680326862458229
-1.44628396897546e-05
0.0008777907967402554
0.001955390833132626
0.003144288661730559
0.004361568402373057
0.005530318628317881
0.006593873036627276
0.007516709705318442
0.008301102100374829
0.008908501097745223
0.009497465569907083
-0.0005178235312898202
-0.0009997344389628324
-0.001080943616611115
-0.0008094219849805803
-0.0002157892549164918
0.0006653131375021672
0.001783426477982614
0.003064131363716249
0.004412583851210422
0.005730311977439828
0.006934629232885601
0.007973498121711588
0.008823360645492932
0.009503584895089262
0.009986287086636417
0.01045803764710205
-0.0005679764330066308
-0.001027415371469086
-0.0009926659380333376
-0.0005385671245156284
0.0002785156311504412
0.001402130503812816
0.00275886245991986
0.004248240887317982
0.005751034589698307
0.007153198676567631
0.008369938338841346
0.009359230085271845
0.01011472082945502
0.01067489460859278
0.01102633240438754
0.01137590993975396
-0.0006023012144659631
-0.001029926721393458
-0.0008746289789537055
-0.000231788803496367
0.000818501367442243
0.002195403095713464
0.003796927917860495
0.005491015534447638
0.007131656081559603
0.008591949126305939
0.009791248314310455
0.010703979085246
0.01134594921350872
0.01177518722867577
0.01199546704425035
0.01222420740273274
-0.0006197735883313555
-0.001001697936452126
-0.0007179646327129237
0.0001213634094655986
0.001413828196260934
0.003050834362922028
0.004895388748808882
0.006778627708234581
0.008528166263229357
0.01001059137063936
0.01115795074614948
0.01196773923462861
0.01248158762585971
0.01277540998236526
0.01287168429575595
0.01298676579311535
-0.0006204177869229668
-0.0009375035953076968
-0.0005120962816641784
0.0005349989897458772
0.002078938004846021
0.003978384721986763
0.006054238932461174
0.008097689465759009
0.009914834557570258
0.01137594428979736
0.01243550659254865
0.01311958438875854
0.01349694432282844
0.01365755458447999
0.0136435079947651
0.01365656213719146
-0.0006046846731111689
-0.0008322071873196596
-0.0002453169192071838
0.001025427925991819
0.002830361973049461
0.004988312547679208
0.007271414333894868
0.009432120582413972
0.01126540146028895
0.01265833821255582
0.01359702103606356
0.01413911359436078
0.01437863440758433
0.01441396961686165
0.01430766975202228
0.01423096302720366
-0.0005728119691899065
-0.0006805082788721628
9.43594391172166e-05
0.001608849235280867
0.003682704389150416
0.006086110545712941
0.008538378348277351
0.01076090087298308
0.0125531147488518
0.013832862245592
0.01462448231907863
0.01501698503628031
0.01512450117363203
0.01504755112415301
0.01486816973307607
0.01470598456503129
-0.0005243409132219446
-0.0004768840782398319
0.0005179894847623113
0.002298510944599823
0.004644375906046579
0.007268048291215212
0.009837474773470288
0.01205801768101121
0.01375228021201409
0.01488090380314696
0.0155091620764779
0.01575380018942355
0.01574179293672573
0.01557149138714214
0.01533880650531085
0.01508173080484041
0.006263003371369349
0.007123227656497253
0.007856483953509089
0.008480155059861634
0.009008934808790094
0.009456721491830312
0.009836670376042848
0.0101604827351681
0.01043802980517118
0.01067741988632843
0.0108852489494573
0.01106686080197906
0.01122657104962969
0.01136785832880474
0.01149353008985774
0.01160586395775826
0.01170672274521099
0.01179764370977586
0.0118799063991176
0.0119545844563228
0.01202258555713974
0.012084682364576
0.01214153669808408
0.01219371862377505
0.01224172170446532
0.01228597528222384
0.01232685444099753
0.01236468815245153
0.01239976598673487
0.01243234368924482
0.01246264783708919
0.01249087975714811
0.01251721885197115
0.01254182542032893
0.01256484305042849
0.01258640068514717
0.01260661437810801
0.01262558880010765
0.01264341857086706
0.01266018940752171
0.01267597912258461
0.01269085849601396
0.01270489203545421
0.01271813864051859
0.0127306521810447
0.0127424820105328
0.01275367341052883
0.01276426800057289
0.01277430407276796
0.01278381694184572
0.01279283916398351
0.01280140089582722
0.01280952992908377
0.01281725221773995
0.01282459149514002
0.01283157039319441
0.01283820897726319
0.01284452752016939
0.01285054242371939
0.01285627263150667
0.01286173092422303
0.006478047981400041
0.007288591842911922
0.007983376061712805
0.008577838211628953
0.009084188253228124
0.009514775091765765
0.009881672118934719
0.01019564328312377
0.01046575959512287
0.01069950443163578
0.01090301248227249
0.01108129155790253
0.01123841070663799
0.01137766618122418
0.01150173019117604
0.01161278005046323
0.01171260394917659
0.01180268328486879
0.01188425550713465
0.01195836234973079
0.01202588716021421
0.01208758392087266
0.01214409998859341
0.01219599413533976
0.0122437510244794
0.01228779291932741
0.0123284892213592
0.01236616429775134
0.01240110395408225
0.01243356083461822
0.01246375895101615
0.01249189749836
0.01251815409138193
0.01254268752010929
0.01256564010284185
0.01258713969846043
0.01260730143785641
0.01262622921698836
0.01264401699231638
0.01266074991262354
0.01267650530110043
0.01269135351394303
0.01270535869081697
0.01271857941144231
0.01273106926701835
0.01274287736819294
0.01275404878434719
0.01276462494984268
0.01277464399414269
0.01278414108982755
0.01279314866685807
0.01280169677236138
0.01280981309779862
0.01281752351486693
0.0128248516708948
0.01283182014713121
0.01283844891189399
0.01284475825571234
0.01285076438701081
0.01285648650135856
0.01286193676216026
0.006889757098259624
0.007606628770232275
0.008228343736472471
0.008767125297831507
0.009230583032846598
0.009628149566705881
0.009969879681757549
0.01026478992911684
0.01052045053483015
0.01074316682735937
0.01093820067974324
0.01110992162010844
0.01126192794322951
0.01139716557585505
0.01151804522675743
0.01162654894570701
0.01172431880912806
0.01181272636991548
0.01189292607719381
0.01196589666368078
0.01203247341199851
0.0120933733864894
0.0121492153546366
0.0122005357505756
0.01224780162091396
0.01229142120010695
0.01233175261183218
0.0123691110768855
0.01240377492128045
0.01243599062502093
0.01246597708839743
0.01249392924612543
0.01252002114277542
0.01254440856280574
0.01256723128597894
0.01258861501556144
0.01260867305016219
0.0126275077301168
0.01264521168410328
0.01266186892408525
0.0126775557953406
0.01269234180870779
0.01270629037035734
0.01271945942212439
0.01273190199929553
0.01274366672784472
0.01275479825361798
0.01276533764120415
0.0127753226952782
0.01278478830454735
0.01279376664704696
0.01280228755119455
0.01281037850850849
0.01281806522605066
0.01282537118011235
0.01283231884960681
0.01283892801157074
0.01284521898727084
0.01285120760816232
0.01285691355474368
0.01286234779284559
0.007465235884320219
0.008054359692739751
0.008575346649798862
0.009036879390237538
0.009440519179905314
0.009791747076734058
0.01009791071377713
0.01036568889961153
0.0106006262144122
0.01080742473303047
0.01099015116892566
0.01115229552703645
0.01129680221036588
0.01142612574436224
0.01154230596481201
0.01164704486707514
0.01174177291358886
0.01182770145251805
0.01190586337158468
0.01197714493480244
0.01204231081095385
0.01210202380363981
0.0121568606407945
0.01220732487845886
0.01225385759416793
0.01229684630302254
0.01233663243502526
0.01237351764275836
0.0124077691390164
0.012439624234566
0.01246929421618896
0.0124969676609027
0.01252281327989877
0.01254698236717299
0.01256961090627149
0.01259082138395011
0.01261072436226479
0.0126294198490717
0.01264699848575667
0.01266354258146749
0.01267912701644374
0.01269382003632788
0.01270768395103074
0.01272077574963611
0.01273314763709545
0.01274484751522007
0.01275591939680234
0.01276640379346549
0.01277633802406078
0.01278575655254181
0.01279469118026615
0.01280317140838297
0.01281122442994563
0.01281887570495904
0.01282614845566723
0.01283306500482732
0.01283964484964757
0.01284590834561636
0.01285187078350819
0.01285755252335707
0.01286296282777219
0.008163084820620156
0.008602392306658114
0.009003698529564397
0.009372581080320767
0.009703945236564187
0.009998715891797101
0.01026114042808759
0.01049523048529672
0.01070419404521698
0.01089086253574245
0.01105789605620583
0.01120774085639684
0.01134255730095399
0.01146420300330698
0.01157426046167653
0.0116740809623475
0.01176482640670912
0.01184750288651918
0.01192298667443643
0.01199204457368793
0.01205534991846178
0.01211349528471206
0.01216700294316796
0.01221633379160377
0.01226189513080991
0.01230404744750441
0.01234311032586227
0.01237936760449929
0.01241307186234296
0.01244444830958581
0.01247369817049669
0.01250100161244864
0.01252652028676166
0.01255039953482915
0.01257277030289776
0.01259375081073036
0.01261344798784925
0.01263195873970219
0.01264937106272793
0.01266576500228934
0.01268121349198149
0.0126957830967367
0.01270953467071519
0.01272252393868266
0.01273480200434213
0.0127464158091277
0.01275740852609771
0.01276781993303231
0.0127776867038735
0.0127870427383878
0.01279591933795743
0.01280434556872275
0.01281234822850382
0.01281995244774499
0.0128271811148302
0.012834056339187
0.01284059725834714
0.01284682425088091
0.01285275193332362
0.0128584014822099
0.01286378006284555
0.008939426939483004
0.009219037152457563
0.00949082302621118
0.009758158933858261
0.01000951978733162
0.01024114645901856
0.01045409417755965
0.01064963530258069
0.01082854454230979
0.01099167433012169
0.01114017858426183
0.01127537459995556
0.01139856491467036
0.01151094425492413
0.01161357800423104
0.01170741338633408
0.01179329780182098
0.01187199416093673
0.01194419190162602
0.01201051482088081
0.01207152673669457
0.0121277359193789
0.01217959915640733
0.01222752591133867
0.01227188260623126
0.01231299687331663
0.01235116162494314
0.01238663885895147
0.01241966314496675
0.01245044475571546
0.01247917246513915
0.01250601602131361
0.01253112832180887
0.01255464732359056
0.01257669772036533
0.0125973924262441
0.01261683386286169
0.01263511508039333
0.01265232077341485
0.01266852816409439
0.01268380775972819
0.01269822403558749
0.01271183603692996
0.01272469791746351
0.01273685941290009
0.01274836627191413
0.01275926062466604
0.01276958133716082
0.01277936428193018
0.01278864265734111
0.0127974471439226
0.01280580626624499
0.01281374633235794
0.01282129206034006
0.01282846592944357
0.0128352897740214
0.01284178230416068
0.01284796389027647
0.01285384838196998
0.0128594578318629
0.01286479706222518
0.009752567000306933
0.009873656903771502
0.01001457231134817
0.01017757445990775
0.01034565798881332
0.01051072758345687
0.01067083530067779
0.01082466892263454
0.01097066238101813
0.0111077192082896
0.01123548240336214
0.01135412240954462
0.01146406080033779
0.01156580197717024
0.01165986280872633
0.01174675310723113
0.01182697351678128
0.01190101514708863
0.011969356807025
0.01203246028183981
0.01209076495703803
0.0121446830788115
0.01219459661254634
0.01224085599356886
0.01228378047208037
0.01232365953984621
0.01236075496632599
0.01239530311537428
0.01242751732605033
0.01245759020145825
0.01248569574739814
0.01251199132717261
0.01253661941956878
0.01255970919083689
0.012581377893883
0.01260173212015274
0.01262086891006869
0.01263887672996688
0.01265583634345884
0.01267182159124268
0.0126869000777217
0.01270113377937923
0.01271457958378752
0.01272728977329081
0.01273931245495662
0.01275069195747284
0.01276146916961727
0.0127716818716029
0.01278136498088569
0.01279055085946313
0.01279926944952509
0.01280754862958045
0.01281541412650098
0.01282289016251515
0.01282999873825855
0.01283676134524533
0.01284319621435637
0.01284932365077547
0.01285515669672714
0.01286071824296374
0.01286601070777699
0.01056605659153942
0.01053895301099963
0.01055485186345083
0.01061599925243811
0.01070139332633473
0.01079936653058421
0.01090539879429234
0.01101593636064166
0.01112732217026815
0.01123665216885335
0.01134212358606818
0.01144278860857957
0.01153820149613045
0.01162818105754375
0.01171269190320417
0.01179179531877914
0.01186562962361035
0.01193439739513351
0.01199835121673297
0.01205777742652342
0.01211297983670318
0.01216426551694349
0.01221193401317745
0.01225627030779619
0.0122975409590964
0.01233599253471923
0.01237185151188163
0.0124053250340118
0.01243660212243658
0.01246585506827023
0.01249324085524089
0.01251890254343878
0.01254297056194582
0.01256556390076968
0.01258679119971932
0.01260675173150326
0.0126255363047283
0.01264322807014542
0.0126599032418111
0.01267563175302625
0.01269047784259095
0.0127045005842646
0.01271775435797134
0.0127302892763587
0.012742151561986
0.01275338390192924
0.01276402575113463
0.01277411363581454
0.01278368136908068
0.01279276034418604
0.01280137965110542
0.01280956642011302
0.01281734571005938
0.01282474116337505
0.01283177423977518
0.01283846601219463
0.01284483420071602
0.01285089895614101
0.01285667253755265
0.01286217851776685
0.01286741707139245
0.01135046367215433
0.01119227113859597
0.01109457004659425
0.01106059456298449
0.01106709036431278
0.01109984543319521
0.01115237161162149
0.01121936902620447
0.01129547637560381
0.01137622020348878
0.01145847137748451
0.01154022066831666
0.01162018843112854
0.01169753325845185
0.01177168657023352
0.01184227225530269
0.01190906957027419
0.0119719899950809
0.012031054006677
0.01208636526170941
0.01213808461886885
0.01218640704237995
0.01223154337756859
0.01227370752077946
0.01231310830346541
0.01234994488816713
0.0123844045016222
0.01241666160367062
0.01244687789389524
0.01247520276536902
0.01250177396968132
0.01252671838002147
0.01255015277436052
0.01257218460433274
0.01259291273559221
0.0126124281413786
0.0126308145644247
0.01264814912910756
0.01266450288480443
0.01267994132693257
0.01269452488580965
0.01270830934958244
0.01272134625202986
0.01273368324155032
0.0127453644011329
0.01275643055637528
0.01276691954123504
0.01277686646576437
0.01278630389262467
0.01279526211906017
0.01280376927629111
0.01281185164506496
0.01281953353394876
0.01282683792194093
0.0128337856749358
0.01284039736174374
0.01284669018435679
0.01285268401109195
0.0128583904194394
0.01286383336954279
0.01286901120911208
0.01208424261004582
0.0118162243511792
0.01162006206140557
0.0115008933935698
0.01143491819770874
0.0114064043783513
0.0114075331065691
0.01143185229617524
0.01147281241209598
0.01152471730461354
0.01158329613632816
0.01164556362213174
0.01170944984440366
0.01177348667004488
0.0118366046589319
0.01189801893996309
0.01195717056088571
0.0120136917235824
0.0120673749171138
0.01211813987682291
0.0121660001836508
0.01221103302290419
0.01225335460095901
0.01229310207331417
0.0123304213955102
0.01236545974481239
0.01239836108053927
0.01242926369258813
0.01245829895630216
0.01248559079389338
0.0125112555320998
0.01253540199352401
0.01255813172312873
0.0125795392919577
0.01259971265036222
0.01261873350319422
0.0126366777014644
0.01265361563114318
0.01266961258011861
0.01268472910330601
0.01269902137362789
0.01271254150528915
0.01272533786209947
0.01273745534961319
0.01274893566617902
0.01275981755821417
0.01277013705231808
0.01277992769551798
0.01278922064476424
0.01279804496873263
0.01280642775378519
0.01281439433197816
0.01282196818132914
0.01282917153310305
0.01283602461836858
0.01284254740584829
0.0128487566000702
0.01285467161367639
0.01286030353342946
0.01286567625365292
0.01287078699842044
0.01275396947765842
0.01239912470242907
0.01212139909050041
0.01192891751239408
0.01179889725893783
0.01171484816724665
0.01166807584306452
0.01165153898694615
0.01165809890389877
0.01168130447673378
0.01171602769733822
0.01175844857127489
0.01180576967815322
0.01185593190508222
0.01190739938601701
0.01195901521974533
0.01200991515369306
0.01205947570797938
0.01210727425911569
0.01215305045625625
0.01219666831390699
0.01223808167060585
0.01227730535853788
0.01231439313215617
0.01234942205417916
0.01238248211432229
0.01241366959710979
0.01244308291913556
0.01247082002614196
0.01249697676083016
0.01252164582898888
0.01254491615117561
0.01256687247467395
0.01258759516630808
0.012607160138624
0.0126256388711206
0.0126430985063501
0.0126596019968879
0.01267520827567496
0.01268997244764251
0.0127039459960011
0.0127171769944175
0.01272971031307311
0.01274158782087855
0.01275284859063978
0.01276352909486172
0.01277366335019885
0.01278328321769119
0.01279241831513636
0.01280109632123433
0.01280934319335624
0.01281718322775295
0.01282463899726581
0.01283173189546071
0.01283848148782686
0.01284490703875968
0.01285102480434025
0.01285685351991079
0.01286240406999895
0.01286769965822252
0.01287273739612371
0.01335351202974205
0.0129353689112766
0.01259312158681783
0.0123396010123839
0.01215480852462975
0.01202207397685962
0.01193198850910814
0.01187726905531738
0.01185071903518979
0.01184565360248465
0.01185647519206907
0.0118787591053529
0.0119090888361617
0.01194485864586278
0.01198409378074577
0.01202529695319562
0.01206733380780869
0.01210935594597508
0.0121507462350386
0.01219107361988762
0.01223005292639715
0.01226750945299951
0.01230334901563647
0.01233753398618952
0.01237006529680459
0.01240096963062349
0.01243029059411061
0.01245808268764303
0.01248440715808037
0.01250932910395861
0.01253291541508469
0.01255523328495427
0.01257634913312461
0.01259632783128111
0.01261523216037819
0.01263312244369629
0.01265005632157984
0.0126660886342282
0.01268127137430665
0.01269565369462232
0.01270928196136255
0.01272219983676807
0.01273444837839259
0.01274606615843754
0.01275708938910347
0.01276755205586463
0.01277748602884345
0.01278692112786088
0.01279588542053981
0.01280440526365118
0.0128125051985483
0.01282020839765052
0.01282753648366914
0.01283450992725488
0.01284114759253923
0.01284746793089593
0.01285348682096516
0.01285922205983631
0.01286468470483964
0.01286989647254761
0.01287485570235549
0.01388048830787864
0.01342421857731426
0.01303466708348679
0.01273175931192263
0.01250084058547949
0.01232606271291556
0.01219746585301889
0.01210764938776596
0.01204966465113817
0.012017003505044
0.01200399382041317
0.01200590375296061
0.01201886951678905
0.01203980883958766
0.01206632725608767
0.01209659766702793
0.01212923486358721
0.01216319152062576
0.01219768041465013
0.01223211634439307
0.0122660718676904
0.01229924276727391
0.01233142014174525
0.01236246745580338
0.01239230205210369
0.01242088081284174
0.01244818937563827
0.01247423414324275
0.01249903638232468
0.01252262785250704
0.01254504754332554
0.01256633921804199
0.01258654955526776
0.01260572674379678
0.01262391942647357
0.01264117591298369
0.01265754360737693
0.01267306860507591
0.01268779541178407
0.01270176675590649
0.01271502347852015
0.01272760447927511
0.01273954670165736
0.01275088515573802
0.01276165295813407
0.01277188139946771
0.01278159999888482
0.01279083658091836
0.01279961739735102
0.01280796719096834
0.01281590918430353
0.01282346529728277
0.01283065611412318
0.01283750114115679
0.01284401849288415
0.01285022569188814
0.01285613829842709
0.01286177292284206
0.01286714120093684
0.01287226244234302
0.0128771378759769
0.01432907169044163
0.01386436067963372
0.01344766901852783
0.01310780391824368
0.01283873820326779
0.01262749346000768
0.01246436853628337
0.01234211526894848
0.01225421580034528
0.01219457802593817
0.01215774563762638
0.01213896405551856
0.01213413586705849
0.01213981425761264
0.01215321352624256
0.01217216484144151
0.01219501634384158
0.01222051864328056
0.01224772389842091
0.01227590734190633
0.01230451158357973
0.01233310929199873
0.01236137734753069
0.01238907684347917
0.01241603628869697
0.01244213731643283
0.01246730277160604
0.01249148702908421
0.01251466829995407
0.01253684262600938
0.01255801924095936
0.01257821700246007
0.01259746164904936
0.01261578369168445
0.01263321679611503
0.01264979654340971
0.01266555948724367
0.01268054244729016
0.01269478198093821
0.01270831399031709
0.01272117344048483
0.01273339416267841
0.01274500871887787
0.01275604832244171
0.012766542793547
0.01277652055486374
0.01278600862881081
0.01279503266990677
0.01280361700178447
0.01281178467613525
0.01281955747316299
0.0128269560089482
0.01283399975381203
0.01284070714821933
0.01284709551188666
0.01285318139502931
0.01285898001877835
0.01286450666807402
0.01286977381582725
0.01287479764648005
0.01287958392635725
0.01468728933774798
0.01424880261146987
0.01383033589745166
0.01346991692730404
0.01317256227315375
0.01293071617587187
0.01273660569633117
0.01258396660128169
0.01246711491241763
0.01238063726029182
0.01231953952515411
0.0122792973160731
0.01225580577592164
0.01224540873552842
0.01224499877112417
0.01225206801894648
0.0122646668430567
0.01228130790152848
0.01230085848552199
0.01232244492070502
0.01234538060432757
0.01236911922763426
0.01239322639435108
0.01241736089067959
0.01244125988984273
0.01246472579781218
0.0124876142705556
0.01250982353920164
0.01253128524682737
0.01255195687159361
0.01257181564149721
0.01259085373915077
0.01260907456188178
0.01262648981840549
0.01264311728075389
0.01265897904356215
0.01267410017690728
0.01268850769054785
0.01270222973875324
0.01271529500762838
0.01272773225024526
0.01273956993872761
0.01275083600228918
0.01276155764032342
0.01277176118804739
0.01278147203439118
0.01279071455852573
0.012799512107311
0.0128078869813083
0.01281586045244282
0.01282345275679523
0.01283068313392502
0.01283756986047337
0.01284413027147122
0.01285038081348582
0.01285633707059038
0.01286201378274156
0.01286742504956307
0.01287258382938457
0.01287750350439563
0.01288219434871531
0.01495302410248495
0.01455221414829295
0.01415651262108607
0.01380310774536281
0.01349968196890544
0.01324271419642982
0.01302788376001014
0.01285150250959479
0.01270973782062282
0.01259851079135642
0.01251381459540519
0.012451803162635
0.01240870691211739
0.01238089357862972
0.01236509223052857
0.01235857130877226
0.01235916807803462
0.01236521468159764
0.01237542857524826
0.01238880661565816
0.01240454321811251
0.01242197863984175
0.01244057039405713
0.01245987646196728
0.01247954245752311
0.01249928957880904
0.01251890278500639
0.01253821955058937
0.01255711969628471
0.01257551663728026
0.01259335013614483
0.01261058045587659
0.01262718371535109
0.01264314822894215
0.01265847163375629
0.01267315863717416
0.01268721924833879
0.01270066739287842
0.01271351982830785
0.01272579528995332
0.01273751382263274
0.01274869626193751
0.01275936382809041
0.01276953781435577
0.01277923934684569
0.01278848921027444
0.01279730771048166
0.01280571458240303